<?xml version="1.0" encoding="UTF-8"?>

<!-- generated on 01/22/21 10:13:52 by Eclipse SUMO netedit Version 1.6.0
<configuration xmlns:xsi="http://www.w3.org/2001/XMLSchema-instance" xsi:noNamespaceSchemaLocation="http://sumo.dlr.de/xsd/netconvertConfiguration.xsd">

    <input>
        <sumo-net-file value="D:\me\myProject\RL-TrafficSignal\code\map\test-map\4-way.net.xml"/>
    </input>

    <output>
        <output-file value="D:\me\myProject\RL-TrafficSignal\code\map\test-map\4-way.net.xml"/>
    </output>

    <processing>
        <geometry.min-radius.fix.railways value="false"/>
        <geometry.max-grade.fix value="false"/>
        <offset.disable-normalization value="true"/>
        <lefthand value="true"/>
    </processing>

    <junctions>
        <no-turnarounds value="true"/>
        <junctions.corner-detail value="5"/>
        <junctions.limit-turn-speed value="5.5"/>
        <rectangular-lane-cut value="false"/>
    </junctions>

    <pedestrian>
        <walkingareas value="false"/>
    </pedestrian>

    <netedit>
        <additional-files value="D:\me\myProject\RL-TrafficSignal\code\map\test-map\4-way.add.xml"/>
    </netedit>

    <report>
        <aggregate-warnings value="5"/>
    </report>

</configuration>
-->

<additional xmlns:xsi="http://www.w3.org/2001/XMLSchema-instance" xsi:noNamespaceSchemaLocation="http://sumo.dlr.de/xsd/additional_file.xsd">
    <e1Detector id="e1_gneE10_0" lane="gneE10_0" pos="300.00" freq="900.00" file="e1.xml"/>
    <e1Detector id="e1_gneE10_1" lane="gneE10_1" pos="300.00" freq="900.00" file="e1.xml"/>
    <e1Detector id="e1_gneE12_0" lane="gneE12_0" pos="300.00" freq="900.00" file="e1.xml"/>
    <e1Detector id="e1_gneE12_1" lane="gneE12_1" pos="300.00" freq="900.00" file="e1.xml"/>
    <e1Detector id="e1_gneE14_0" lane="gneE14_0" pos="300.00" freq="900.00" file="e1.xml"/>
    <e1Detector id="e1_gneE14_1" lane="gneE14_1" pos="300.00" freq="900.00" file="e1.xml"/>
    <e1Detector id="e1_gneE8_0" lane="gneE8_0" pos="300.00" freq="900.00" file="e1.xml"/>
    <e1Detector id="e1_gneE8_1" lane="gneE8_1" pos="300.00" freq="900.00" file="e1.xml"/>
</additional>
