<?xml version="1.0" encoding="UTF-8"?>

<!-- generated on 02/11/21 00:55:30 by Eclipse SUMO netedit Version 1.6.0
<configuration xmlns:xsi="http://www.w3.org/2001/XMLSchema-instance" xsi:noNamespaceSchemaLocation="http://sumo.dlr.de/xsd/netconvertConfiguration.xsd">

    <input>
        <sumo-net-file value="D:\Picasso\kmitl_ce4\Project\Reinforcement_traffic_control\Semester_2\map\4-way\4-way.net.xml"/>
    </input>

    <output>
        <output-file value="D:\Picasso\kmitl_ce4\Project\Reinforcement_traffic_control\Semester_2\map\4-way\4-way.net.xml"/>
    </output>

    <processing>
        <geometry.min-radius.fix.railways value="false"/>
        <geometry.max-grade.fix value="false"/>
        <offset.disable-normalization value="true"/>
        <lefthand value="true"/>
    </processing>

    <junctions>
        <no-turnarounds value="true"/>
        <junctions.corner-detail value="5"/>
        <junctions.limit-turn-speed value="5.5"/>
        <rectangular-lane-cut value="false"/>
    </junctions>

    <pedestrian>
        <walkingareas value="false"/>
    </pedestrian>

    <report>
        <aggregate-warnings value="5"/>
    </report>

</configuration>
-->

<net version="1.6" junctionCornerDetail="5" lefthand="true" limitTurnSpeed="5.50" xmlns:xsi="http://www.w3.org/2001/XMLSchema-instance" xsi:noNamespaceSchemaLocation="http://sumo.dlr.de/xsd/net_file.xsd">

    <location netOffset="0.00,0.00" convBoundary="-1000.00,-1000.00,1000.00,1000.00" origBoundary="-10000000000.00,-10000000000.00,10000000000.00,10000000000.00" projParameter="!"/>

    <edge id=":C_TFL_0" function="internal">
        <lane id=":C_TFL_0_0" index="0" speed="6.51" length="9.03" shape="-4.80,-10.40 -5.15,-7.95 -6.20,-6.20 -7.95,-5.15 -10.40,-4.80"/>
    </edge>
    <edge id=":C_TFL_1" function="internal">
        <lane id=":C_TFL_1_0" index="0" speed="13.89" length="20.80" shape="-4.80,-10.40 -4.80,10.40"/>
    </edge>
    <edge id=":C_TFL_2" function="internal">
        <lane id=":C_TFL_2_0" index="0" speed="9.26" length="19.35" shape="-1.60,-10.40 -0.85,-5.15 1.40,-1.40 5.15,0.85 10.40,1.60"/>
    </edge>
    <edge id=":C_TFL_3" function="internal">
        <lane id=":C_TFL_3_0" index="0" speed="6.51" length="9.03" shape="10.40,-4.80 7.95,-5.15 6.20,-6.20 5.15,-7.95 4.80,-10.40"/>
    </edge>
    <edge id=":C_TFL_4" function="internal">
        <lane id=":C_TFL_4_0" index="0" speed="13.89" length="20.80" shape="10.40,-4.80 -10.40,-4.80"/>
    </edge>
    <edge id=":C_TFL_5" function="internal">
        <lane id=":C_TFL_5_0" index="0" speed="9.26" length="19.35" shape="10.40,-1.60 5.15,-0.85 1.40,1.40 -0.85,5.15 -1.60,10.40"/>
    </edge>
    <edge id=":C_TFL_6" function="internal">
        <lane id=":C_TFL_6_0" index="0" speed="6.51" length="9.03" shape="4.80,10.40 5.15,7.95 6.20,6.20 7.95,5.15 10.40,4.80"/>
    </edge>
    <edge id=":C_TFL_7" function="internal">
        <lane id=":C_TFL_7_0" index="0" speed="13.89" length="20.80" shape="4.80,10.40 4.80,-10.40"/>
    </edge>
    <edge id=":C_TFL_8" function="internal">
        <lane id=":C_TFL_8_0" index="0" speed="9.26" length="19.35" shape="1.60,10.40 0.85,5.15 -1.40,1.40 -5.15,-0.85 -10.40,-1.60"/>
    </edge>
    <edge id=":C_TFL_9" function="internal">
        <lane id=":C_TFL_9_0" index="0" speed="6.51" length="9.03" shape="-10.40,4.80 -7.95,5.15 -6.20,6.20 -5.15,7.95 -4.80,10.40"/>
    </edge>
    <edge id=":C_TFL_10" function="internal">
        <lane id=":C_TFL_10_0" index="0" speed="13.89" length="20.80" shape="-10.40,4.80 10.40,4.80"/>
    </edge>
    <edge id=":C_TFL_11" function="internal">
        <lane id=":C_TFL_11_0" index="0" speed="9.26" length="19.35" shape="-10.40,1.60 -5.15,0.85 -1.40,-1.40 0.85,-5.15 1.60,-10.40"/>
    </edge>
    <edge id=":U_Turn_E_0" function="internal">
        <lane id=":U_Turn_E_0_0" index="0" speed="13.89" length="0.10" shape="900.00,-4.80 900.00,-4.80"/>
        <lane id=":U_Turn_E_0_1" index="1" speed="13.89" length="0.10" shape="900.00,-1.60 900.00,-1.60"/>
    </edge>
    <edge id=":U_Turn_E_2" function="internal">
        <lane id=":U_Turn_E_2_0" index="0" speed="13.89" length="0.10" shape="900.00,4.80 900.00,4.80"/>
        <lane id=":U_Turn_E_2_1" index="1" speed="13.89" length="0.10" shape="900.00,1.60 900.00,1.60"/>
    </edge>
    <edge id=":U_Turn_N_0" function="internal">
        <lane id=":U_Turn_N_0_0" index="0" speed="13.89" length="0.10" shape="-4.80,900.00 -4.80,900.00"/>
        <lane id=":U_Turn_N_0_1" index="1" speed="13.89" length="0.10" shape="-1.60,900.00 -1.60,900.00"/>
    </edge>
    <edge id=":U_Turn_N_2" function="internal">
        <lane id=":U_Turn_N_2_0" index="0" speed="13.89" length="0.10" shape="4.80,900.00 4.80,900.00"/>
        <lane id=":U_Turn_N_2_1" index="1" speed="13.89" length="0.10" shape="1.60,900.00 1.60,900.00"/>
    </edge>
    <edge id=":U_Turn_S_0" function="internal">
        <lane id=":U_Turn_S_0_0" index="0" speed="13.89" length="0.10" shape="-4.80,-900.00 -4.80,-900.00"/>
        <lane id=":U_Turn_S_0_1" index="1" speed="13.89" length="0.10" shape="-1.60,-900.00 -1.60,-900.00"/>
    </edge>
    <edge id=":U_Turn_S_2" function="internal">
        <lane id=":U_Turn_S_2_0" index="0" speed="13.89" length="0.10" shape="4.80,-900.00 4.80,-900.00"/>
        <lane id=":U_Turn_S_2_1" index="1" speed="13.89" length="0.10" shape="1.60,-900.00 1.60,-900.00"/>
    </edge>
    <edge id=":U_Turn_W_0" function="internal">
        <lane id=":U_Turn_W_0_0" index="0" speed="13.89" length="0.10" shape="-900.00,-4.80 -900.00,-4.80"/>
        <lane id=":U_Turn_W_0_1" index="1" speed="13.89" length="0.10" shape="-900.00,-1.60 -900.00,-1.60"/>
    </edge>
    <edge id=":U_Turn_W_2" function="internal">
        <lane id=":U_Turn_W_2_0" index="0" speed="13.89" length="0.10" shape="-900.00,4.80 -900.00,4.80"/>
        <lane id=":U_Turn_W_2_1" index="1" speed="13.89" length="0.10" shape="-900.00,1.60 -900.00,1.60"/>
    </edge>

    <edge id="InB_E_1" from="Start_E" to="U_Turn_E" priority="-1">
        <lane id="InB_E_1_0" index="0" speed="13.89" length="100.00" shape="1000.00,-4.80 900.00,-4.80"/>
        <lane id="InB_E_1_1" index="1" speed="13.89" length="100.00" shape="1000.00,-1.60 900.00,-1.60"/>
    </edge>
    <edge id="InB_E_2" from="U_Turn_E" to="C_TFL" priority="-1" length="900.00">
        <lane id="InB_E_2_0" index="0" speed="13.89" length="900.00" shape="900.00,-4.80 10.40,-4.80"/>
        <lane id="InB_E_2_1" index="1" speed="13.89" length="900.00" shape="900.00,-1.60 10.40,-1.60"/>
    </edge>
    <edge id="InB_N_1" from="Start_N" to="U_Turn_N" priority="-1">
        <lane id="InB_N_1_0" index="0" speed="13.89" length="100.00" shape="4.80,1000.00 4.80,900.00"/>
        <lane id="InB_N_1_1" index="1" speed="13.89" length="100.00" shape="1.60,1000.00 1.60,900.00"/>
    </edge>
    <edge id="InB_N_2" from="U_Turn_N" to="C_TFL" priority="-1" length="900.00">
        <lane id="InB_N_2_0" index="0" speed="13.89" length="900.00" shape="4.80,900.00 4.80,10.40"/>
        <lane id="InB_N_2_1" index="1" speed="13.89" length="900.00" shape="1.60,900.00 1.60,10.40"/>
    </edge>
    <edge id="InB_S_1" from="Start_S" to="U_Turn_S" priority="-1">
        <lane id="InB_S_1_0" index="0" speed="13.89" length="100.00" shape="-4.80,-1000.00 -4.80,-900.00"/>
        <lane id="InB_S_1_1" index="1" speed="13.89" length="100.00" shape="-1.60,-1000.00 -1.60,-900.00"/>
    </edge>
    <edge id="InB_S_2" from="U_Turn_S" to="C_TFL" priority="-1" length="900.00">
        <lane id="InB_S_2_0" index="0" speed="13.89" length="900.00" shape="-4.80,-900.00 -4.80,-10.40"/>
        <lane id="InB_S_2_1" index="1" speed="13.89" length="900.00" shape="-1.60,-900.00 -1.60,-10.40"/>
    </edge>
    <edge id="InB_W_1" from="Start_W" to="U_Turn_W" priority="-1">
        <lane id="InB_W_1_0" index="0" speed="13.89" length="100.00" shape="-1000.00,4.80 -900.00,4.80"/>
        <lane id="InB_W_1_1" index="1" speed="13.89" length="100.00" shape="-1000.00,1.60 -900.00,1.60"/>
    </edge>
    <edge id="InB_W_2" from="U_Turn_W" to="C_TFL" priority="-1" length="900.00">
        <lane id="InB_W_2_0" index="0" speed="13.89" length="900.00" shape="-900.00,4.80 -10.40,4.80"/>
        <lane id="InB_W_2_1" index="1" speed="13.89" length="900.00" shape="-900.00,1.60 -10.40,1.60"/>
    </edge>
    <edge id="OutB_E_1" from="U_Turn_E" to="Start_E" priority="-1">
        <lane id="OutB_E_1_0" index="0" speed="13.89" length="100.00" shape="900.00,4.80 1000.00,4.80"/>
        <lane id="OutB_E_1_1" index="1" speed="13.89" length="100.00" shape="900.00,1.60 1000.00,1.60"/>
    </edge>
    <edge id="OutB_E_2" from="C_TFL" to="U_Turn_E" priority="-1" length="900.00">
        <lane id="OutB_E_2_0" index="0" speed="13.89" length="900.00" shape="10.40,4.80 900.00,4.80"/>
        <lane id="OutB_E_2_1" index="1" speed="13.89" length="900.00" shape="10.40,1.60 900.00,1.60"/>
    </edge>
    <edge id="OutB_N_1" from="U_Turn_N" to="Start_N" priority="-1">
        <lane id="OutB_N_1_0" index="0" speed="13.89" length="100.00" shape="-4.80,900.00 -4.80,1000.00"/>
        <lane id="OutB_N_1_1" index="1" speed="13.89" length="100.00" shape="-1.60,900.00 -1.60,1000.00"/>
    </edge>
    <edge id="OutB_N_2" from="C_TFL" to="U_Turn_N" priority="-1" length="900.00">
        <lane id="OutB_N_2_0" index="0" speed="13.89" length="900.00" shape="-4.80,10.40 -4.80,900.00"/>
        <lane id="OutB_N_2_1" index="1" speed="13.89" length="900.00" shape="-1.60,10.40 -1.60,900.00"/>
    </edge>
    <edge id="OutB_S_1" from="U_Turn_S" to="Start_S" priority="-1">
        <lane id="OutB_S_1_0" index="0" speed="13.89" length="100.00" shape="4.80,-900.00 4.80,-1000.00"/>
        <lane id="OutB_S_1_1" index="1" speed="13.89" length="100.00" shape="1.60,-900.00 1.60,-1000.00"/>
    </edge>
    <edge id="OutB_S_2" from="C_TFL" to="U_Turn_S" priority="-1" length="900.00">
        <lane id="OutB_S_2_0" index="0" speed="13.89" length="900.00" shape="4.80,-10.40 4.80,-900.00"/>
        <lane id="OutB_S_2_1" index="1" speed="13.89" length="900.00" shape="1.60,-10.40 1.60,-900.00"/>
    </edge>
    <edge id="OutB_W_1" from="U_Turn_W" to="Start_W" priority="-1">
        <lane id="OutB_W_1_0" index="0" speed="13.89" length="100.00" shape="-900.00,-4.80 -1000.00,-4.80"/>
        <lane id="OutB_W_1_1" index="1" speed="13.89" length="100.00" shape="-900.00,-1.60 -1000.00,-1.60"/>
    </edge>
    <edge id="OutB_W_2" from="C_TFL" to="U_Turn_W" priority="-1" length="900.00">
        <lane id="OutB_W_2_0" index="0" speed="13.89" length="900.00" shape="-10.40,-4.80 -900.00,-4.80"/>
        <lane id="OutB_W_2_1" index="1" speed="13.89" length="900.00" shape="-10.40,-1.60 -900.00,-1.60"/>
    </edge>

    <tlLogic id="Center_TFL" type="static" programID="0" offset="0">
        <phase duration="1"  state="rrrrrrrrrrrr"/>
    </tlLogic>

    <junction id="C_TFL" type="traffic_light" x="0.00" y="0.00" incLanes="InB_S_2_0 InB_S_2_1 InB_E_2_0 InB_E_2_1 InB_N_2_0 InB_N_2_1 InB_W_2_0 InB_W_2_1" intLanes=":C_TFL_0_0 :C_TFL_1_0 :C_TFL_2_0 :C_TFL_3_0 :C_TFL_4_0 :C_TFL_5_0 :C_TFL_6_0 :C_TFL_7_0 :C_TFL_8_0 :C_TFL_9_0 :C_TFL_10_0 :C_TFL_11_0" shape="-6.40,-10.40 6.40,-10.40 6.84,-8.18 7.40,-7.40 8.18,-6.84 9.18,-6.51 10.40,-6.40 10.40,6.40 8.18,6.84 7.40,7.40 6.84,8.18 6.51,9.18 6.40,10.40 -6.40,10.40 -6.84,8.18 -7.40,7.40 -8.18,6.84 -9.18,6.51 -10.40,6.40 -10.40,-6.40 -8.18,-6.84 -7.40,-7.40 -6.84,-8.18 -6.51,-9.18">
        <request index="0"  response="000000000000" foes="000000010000" cont="0"/>
        <request index="1"  response="000000000000" foes="111100010000" cont="0"/>
        <request index="2"  response="000010000000" foes="100010110000" cont="0"/>
        <request index="3"  response="000010000000" foes="000010000000" cont="0"/>
        <request index="4"  response="000010000111" foes="100010000111" cont="0"/>
        <request index="5"  response="010110000100" foes="010110000100" cont="0"/>
        <request index="6"  response="000000000000" foes="010000000000" cont="0"/>
        <request index="7"  response="000000000000" foes="010000111100" cont="0"/>
        <request index="8"  response="000000000010" foes="110000100010" cont="0"/>
        <request index="9"  response="000000000010" foes="000000000010" cont="0"/>
        <request index="10" response="000111000010" foes="000111100010" cont="0"/>
        <request index="11" response="000100010110" foes="000100010110" cont="0"/>
    </junction>
    <junction id="Start_E" type="dead_end" x="1000.00" y="0.00" incLanes="OutB_E_1_0 OutB_E_1_1" intLanes="" shape="1000.00,-0.00 1000.00,6.40 1000.00,-0.00"/>
    <junction id="Start_N" type="dead_end" x="0.00" y="1000.00" incLanes="OutB_N_1_0 OutB_N_1_1" intLanes="" shape="0.00,1000.00 -6.40,1000.00 0.00,1000.00"/>
    <junction id="Start_S" type="dead_end" x="0.00" y="-1000.00" incLanes="OutB_S_1_0 OutB_S_1_1" intLanes="" shape="0.00,-1000.00 6.40,-1000.00 0.00,-1000.00"/>
    <junction id="Start_W" type="dead_end" x="-1000.00" y="0.00" incLanes="OutB_W_1_0 OutB_W_1_1" intLanes="" shape="-1000.00,-0.00 -1000.00,-6.40 -1000.00,-0.00"/>
    <junction id="U_Turn_E" type="priority" x="900.00" y="0.00" incLanes="InB_E_1_0 InB_E_1_1 OutB_E_2_0 OutB_E_2_1" intLanes=":U_Turn_E_0_0 :U_Turn_E_0_1 :U_Turn_E_2_0 :U_Turn_E_2_1" shape="900.00,-6.40 900.00,6.40 900.00,-6.40">
        <request index="0" response="0000" foes="0000" cont="0"/>
        <request index="1" response="0000" foes="0000" cont="0"/>
        <request index="2" response="0000" foes="0000" cont="0"/>
        <request index="3" response="0000" foes="0000" cont="0"/>
    </junction>
    <junction id="U_Turn_N" type="priority" x="0.00" y="900.00" incLanes="OutB_N_2_0 OutB_N_2_1 InB_N_1_0 InB_N_1_1" intLanes=":U_Turn_N_0_0 :U_Turn_N_0_1 :U_Turn_N_2_0 :U_Turn_N_2_1" shape="-6.40,900.00 6.40,900.00 -6.40,900.00">
        <request index="0" response="0000" foes="0000" cont="0"/>
        <request index="1" response="0000" foes="0000" cont="0"/>
        <request index="2" response="0000" foes="0000" cont="0"/>
        <request index="3" response="0000" foes="0000" cont="0"/>
    </junction>
    <junction id="U_Turn_S" type="priority" x="0.00" y="-900.00" incLanes="InB_S_1_0 InB_S_1_1 OutB_S_2_0 OutB_S_2_1" intLanes=":U_Turn_S_0_0 :U_Turn_S_0_1 :U_Turn_S_2_0 :U_Turn_S_2_1" shape="-6.40,-900.00 6.40,-900.00 -6.40,-900.00">
        <request index="0" response="0000" foes="0000" cont="0"/>
        <request index="1" response="0000" foes="0000" cont="0"/>
        <request index="2" response="0000" foes="0000" cont="0"/>
        <request index="3" response="0000" foes="0000" cont="0"/>
    </junction>
    <junction id="U_Turn_W" type="priority" x="-900.00" y="0.00" incLanes="OutB_W_2_0 OutB_W_2_1 InB_W_1_0 InB_W_1_1" intLanes=":U_Turn_W_0_0 :U_Turn_W_0_1 :U_Turn_W_2_0 :U_Turn_W_2_1" shape="-900.00,-6.40 -900.00,6.40 -900.00,-6.40">
        <request index="0" response="0000" foes="0000" cont="0"/>
        <request index="1" response="0000" foes="0000" cont="0"/>
        <request index="2" response="0000" foes="0000" cont="0"/>
        <request index="3" response="0000" foes="0000" cont="0"/>
    </junction>

    <connection from="InB_E_1" to="InB_E_2" fromLane="0" toLane="0" via=":U_Turn_E_0_0" dir="s" state="M"/>
    <connection from="InB_E_1" to="InB_E_2" fromLane="1" toLane="1" via=":U_Turn_E_0_1" dir="s" state="M"/>
    <connection from="InB_E_2" to="OutB_S_2" fromLane="0" toLane="0" via=":C_TFL_3_0" tl="Center_TFL" linkIndex="3" dir="l" state="o"/>
    <connection from="InB_E_2" to="OutB_W_2" fromLane="0" toLane="0" via=":C_TFL_4_0" tl="Center_TFL" linkIndex="4" dir="s" state="o"/>
    <connection from="InB_E_2" to="OutB_N_2" fromLane="1" toLane="1" via=":C_TFL_5_0" tl="Center_TFL" linkIndex="5" dir="r" state="o"/>
    <connection from="InB_N_1" to="InB_N_2" fromLane="0" toLane="0" via=":U_Turn_N_2_0" dir="s" state="M"/>
    <connection from="InB_N_1" to="InB_N_2" fromLane="1" toLane="1" via=":U_Turn_N_2_1" dir="s" state="M"/>
    <connection from="InB_N_2" to="OutB_E_2" fromLane="0" toLane="0" via=":C_TFL_6_0" tl="Center_TFL" linkIndex="6" dir="l" state="O"/>
    <connection from="InB_N_2" to="OutB_S_2" fromLane="0" toLane="0" via=":C_TFL_7_0" tl="Center_TFL" linkIndex="7" dir="s" state="O"/>
    <connection from="InB_N_2" to="OutB_W_2" fromLane="1" toLane="1" via=":C_TFL_8_0" tl="Center_TFL" linkIndex="8" dir="r" state="o"/>
    <connection from="InB_S_1" to="InB_S_2" fromLane="0" toLane="0" via=":U_Turn_S_0_0" dir="s" state="M"/>
    <connection from="InB_S_1" to="InB_S_2" fromLane="1" toLane="1" via=":U_Turn_S_0_1" dir="s" state="M"/>
    <connection from="InB_S_2" to="OutB_W_2" fromLane="0" toLane="0" via=":C_TFL_0_0" tl="Center_TFL" linkIndex="0" dir="l" state="O"/>
    <connection from="InB_S_2" to="OutB_N_2" fromLane="0" toLane="0" via=":C_TFL_1_0" tl="Center_TFL" linkIndex="1" dir="s" state="O"/>
    <connection from="InB_S_2" to="OutB_E_2" fromLane="1" toLane="1" via=":C_TFL_2_0" tl="Center_TFL" linkIndex="2" dir="r" state="o"/>
    <connection from="InB_W_1" to="InB_W_2" fromLane="0" toLane="0" via=":U_Turn_W_2_0" dir="s" state="M"/>
    <connection from="InB_W_1" to="InB_W_2" fromLane="1" toLane="1" via=":U_Turn_W_2_1" dir="s" state="M"/>
    <connection from="InB_W_2" to="OutB_N_2" fromLane="0" toLane="0" via=":C_TFL_9_0" tl="Center_TFL" linkIndex="9" dir="l" state="o"/>
    <connection from="InB_W_2" to="OutB_E_2" fromLane="0" toLane="0" via=":C_TFL_10_0" tl="Center_TFL" linkIndex="10" dir="s" state="o"/>
    <connection from="InB_W_2" to="OutB_S_2" fromLane="1" toLane="1" via=":C_TFL_11_0" tl="Center_TFL" linkIndex="11" dir="r" state="o"/>
    <connection from="OutB_E_2" to="OutB_E_1" fromLane="0" toLane="0" via=":U_Turn_E_2_0" dir="s" state="M"/>
    <connection from="OutB_E_2" to="OutB_E_1" fromLane="1" toLane="1" via=":U_Turn_E_2_1" dir="s" state="M"/>
    <connection from="OutB_N_2" to="OutB_N_1" fromLane="0" toLane="0" via=":U_Turn_N_0_0" dir="s" state="M"/>
    <connection from="OutB_N_2" to="OutB_N_1" fromLane="1" toLane="1" via=":U_Turn_N_0_1" dir="s" state="M"/>
    <connection from="OutB_S_2" to="OutB_S_1" fromLane="0" toLane="0" via=":U_Turn_S_2_0" dir="s" state="M"/>
    <connection from="OutB_S_2" to="OutB_S_1" fromLane="1" toLane="1" via=":U_Turn_S_2_1" dir="s" state="M"/>
    <connection from="OutB_W_2" to="OutB_W_1" fromLane="0" toLane="0" via=":U_Turn_W_0_0" dir="s" state="M"/>
    <connection from="OutB_W_2" to="OutB_W_1" fromLane="1" toLane="1" via=":U_Turn_W_0_1" dir="s" state="M"/>

    <connection from=":C_TFL_0" to="OutB_W_2" fromLane="0" toLane="0" dir="l" state="M"/>
    <connection from=":C_TFL_1" to="OutB_N_2" fromLane="0" toLane="0" dir="s" state="M"/>
    <connection from=":C_TFL_2" to="OutB_E_2" fromLane="0" toLane="1" dir="r" state="M"/>
    <connection from=":C_TFL_3" to="OutB_S_2" fromLane="0" toLane="0" dir="l" state="M"/>
    <connection from=":C_TFL_4" to="OutB_W_2" fromLane="0" toLane="0" dir="s" state="M"/>
    <connection from=":C_TFL_5" to="OutB_N_2" fromLane="0" toLane="1" dir="r" state="M"/>
    <connection from=":C_TFL_6" to="OutB_E_2" fromLane="0" toLane="0" dir="l" state="M"/>
    <connection from=":C_TFL_7" to="OutB_S_2" fromLane="0" toLane="0" dir="s" state="M"/>
    <connection from=":C_TFL_8" to="OutB_W_2" fromLane="0" toLane="1" dir="r" state="M"/>
    <connection from=":C_TFL_9" to="OutB_N_2" fromLane="0" toLane="0" dir="l" state="M"/>
    <connection from=":C_TFL_10" to="OutB_E_2" fromLane="0" toLane="0" dir="s" state="M"/>
    <connection from=":C_TFL_11" to="OutB_S_2" fromLane="0" toLane="1" dir="r" state="M"/>
    <connection from=":U_Turn_E_0" to="InB_E_2" fromLane="0" toLane="0" dir="s" state="M"/>
    <connection from=":U_Turn_E_0" to="InB_E_2" fromLane="1" toLane="1" dir="s" state="M"/>
    <connection from=":U_Turn_E_2" to="OutB_E_1" fromLane="0" toLane="0" dir="s" state="M"/>
    <connection from=":U_Turn_E_2" to="OutB_E_1" fromLane="1" toLane="1" dir="s" state="M"/>
    <connection from=":U_Turn_N_0" to="OutB_N_1" fromLane="0" toLane="0" dir="s" state="M"/>
    <connection from=":U_Turn_N_0" to="OutB_N_1" fromLane="1" toLane="1" dir="s" state="M"/>
    <connection from=":U_Turn_N_2" to="InB_N_2" fromLane="0" toLane="0" dir="s" state="M"/>
    <connection from=":U_Turn_N_2" to="InB_N_2" fromLane="1" toLane="1" dir="s" state="M"/>
    <connection from=":U_Turn_S_0" to="InB_S_2" fromLane="0" toLane="0" dir="s" state="M"/>
    <connection from=":U_Turn_S_0" to="InB_S_2" fromLane="1" toLane="1" dir="s" state="M"/>
    <connection from=":U_Turn_S_2" to="OutB_S_1" fromLane="0" toLane="0" dir="s" state="M"/>
    <connection from=":U_Turn_S_2" to="OutB_S_1" fromLane="1" toLane="1" dir="s" state="M"/>
    <connection from=":U_Turn_W_0" to="OutB_W_1" fromLane="0" toLane="0" dir="s" state="M"/>
    <connection from=":U_Turn_W_0" to="OutB_W_1" fromLane="1" toLane="1" dir="s" state="M"/>
    <connection from=":U_Turn_W_2" to="InB_W_2" fromLane="0" toLane="0" dir="s" state="M"/>
    <connection from=":U_Turn_W_2" to="InB_W_2" fromLane="1" toLane="1" dir="s" state="M"/>

</net>
