<?xml version="1.0" encoding="UTF-8"?>

<!-- generated on 02/02/21 00:50:05 by Eclipse SUMO netedit Version 1.6.0
<configuration xmlns:xsi="http://www.w3.org/2001/XMLSchema-instance" xsi:noNamespaceSchemaLocation="http://sumo.dlr.de/xsd/netconvertConfiguration.xsd">

    <input>
        <sumo-net-file value="D:\me\myProject\RL-TrafficSignal\code\map\4-way\4-way.net.xml"/>
    </input>

    <output>
        <output-file value="D:\me\myProject\RL-TrafficSignal\code\map\4-way\4-way.net.xml"/>
    </output>

    <processing>
        <geometry.min-radius.fix.railways value="false"/>
        <geometry.max-grade.fix value="false"/>
        <offset.disable-normalization value="true"/>
        <lefthand value="true"/>
    </processing>

    <junctions>
        <no-turnarounds value="true"/>
        <junctions.corner-detail value="5"/>
        <junctions.limit-turn-speed value="5.5"/>
        <rectangular-lane-cut value="false"/>
    </junctions>

    <pedestrian>
        <walkingareas value="false"/>
    </pedestrian>

    <report>
        <aggregate-warnings value="5"/>
    </report>

</configuration>
-->

<net version="1.6" junctionCornerDetail="5" lefthand="true" limitTurnSpeed="5.50" xmlns:xsi="http://www.w3.org/2001/XMLSchema-instance" xsi:noNamespaceSchemaLocation="http://sumo.dlr.de/xsd/net_file.xsd">

    <location netOffset="0.00,0.00" convBoundary="-2400.00,-1000.00,-1200.00,200.00" origBoundary="-10000000000.00,-10000000000.00,10000000000.00,10000000000.00" projParameter="!"/>

    <edge id=":gneJ10_0" function="internal">
        <lane id=":gneJ10_0_0" index="0" speed="6.51" length="9.03" shape="-1804.80,-410.40 -1805.15,-407.95 -1806.20,-406.20 -1807.95,-405.15 -1810.40,-404.80"/>
    </edge>
    <edge id=":gneJ10_1" function="internal">
        <lane id=":gneJ10_1_0" index="0" speed="13.89" length="20.80" shape="-1804.80,-410.40 -1804.80,-389.60"/>
    </edge>
    <edge id=":gneJ10_2" function="internal">
        <lane id=":gneJ10_2_0" index="0" speed="9.26" length="19.35" shape="-1801.60,-410.40 -1800.85,-405.15 -1798.60,-401.40 -1794.85,-399.15 -1789.60,-398.40"/>
    </edge>
    <edge id=":gneJ10_3" function="internal">
        <lane id=":gneJ10_3_0" index="0" speed="6.51" length="9.03" shape="-1789.60,-404.80 -1792.05,-405.15 -1793.80,-406.20 -1794.85,-407.95 -1795.20,-410.40"/>
    </edge>
    <edge id=":gneJ10_4" function="internal">
        <lane id=":gneJ10_4_0" index="0" speed="13.89" length="20.80" shape="-1789.60,-404.80 -1810.40,-404.80"/>
    </edge>
    <edge id=":gneJ10_5" function="internal">
        <lane id=":gneJ10_5_0" index="0" speed="9.26" length="19.35" shape="-1789.60,-401.60 -1794.85,-400.85 -1798.60,-398.60 -1800.85,-394.85 -1801.60,-389.60"/>
    </edge>
    <edge id=":gneJ10_6" function="internal">
        <lane id=":gneJ10_6_0" index="0" speed="6.51" length="9.03" shape="-1795.20,-389.60 -1794.85,-392.05 -1793.80,-393.80 -1792.05,-394.85 -1789.60,-395.20"/>
    </edge>
    <edge id=":gneJ10_7" function="internal">
        <lane id=":gneJ10_7_0" index="0" speed="13.89" length="20.80" shape="-1795.20,-389.60 -1795.20,-410.40"/>
    </edge>
    <edge id=":gneJ10_8" function="internal">
        <lane id=":gneJ10_8_0" index="0" speed="9.26" length="19.35" shape="-1798.40,-389.60 -1799.15,-394.85 -1801.40,-398.60 -1805.15,-400.85 -1810.40,-401.60"/>
    </edge>
    <edge id=":gneJ10_9" function="internal">
        <lane id=":gneJ10_9_0" index="0" speed="6.51" length="9.03" shape="-1810.40,-395.20 -1807.95,-394.85 -1806.20,-393.80 -1805.15,-392.05 -1804.80,-389.60"/>
    </edge>
    <edge id=":gneJ10_10" function="internal">
        <lane id=":gneJ10_10_0" index="0" speed="13.89" length="20.80" shape="-1810.40,-395.20 -1789.60,-395.20"/>
    </edge>
    <edge id=":gneJ10_11" function="internal">
        <lane id=":gneJ10_11_0" index="0" speed="9.26" length="19.35" shape="-1810.40,-398.40 -1805.15,-399.15 -1801.40,-401.40 -1799.15,-405.15 -1798.40,-410.40"/>
    </edge>
    <edge id=":gneJ12_0" function="internal">
        <lane id=":gneJ12_0_0" index="0" speed="13.89" length="0.10" shape="-1804.80,100.00 -1804.80,100.00"/>
        <lane id=":gneJ12_0_1" index="1" speed="13.89" length="0.10" shape="-1801.60,100.00 -1801.60,100.00"/>
    </edge>
    <edge id=":gneJ12_2" function="internal">
        <lane id=":gneJ12_2_0" index="0" speed="13.89" length="0.10" shape="-1795.20,100.00 -1795.20,100.00"/>
        <lane id=":gneJ12_2_1" index="1" speed="13.89" length="0.10" shape="-1798.40,100.00 -1798.40,100.00"/>
    </edge>
    <edge id=":gneJ14_0" function="internal">
        <lane id=":gneJ14_0_0" index="0" speed="13.89" length="0.10" shape="-1300.00,-404.80 -1300.00,-404.80"/>
        <lane id=":gneJ14_0_1" index="1" speed="13.89" length="0.10" shape="-1300.00,-401.60 -1300.00,-401.60"/>
    </edge>
    <edge id=":gneJ14_2" function="internal">
        <lane id=":gneJ14_2_0" index="0" speed="13.89" length="0.10" shape="-1300.00,-395.20 -1300.00,-395.20"/>
        <lane id=":gneJ14_2_1" index="1" speed="13.89" length="0.10" shape="-1300.00,-398.40 -1300.00,-398.40"/>
    </edge>
    <edge id=":gneJ16_0" function="internal">
        <lane id=":gneJ16_0_0" index="0" speed="13.89" length="0.10" shape="-1804.80,-900.00 -1804.80,-900.00"/>
        <lane id=":gneJ16_0_1" index="1" speed="13.89" length="0.10" shape="-1801.60,-900.00 -1801.60,-900.00"/>
    </edge>
    <edge id=":gneJ16_2" function="internal">
        <lane id=":gneJ16_2_0" index="0" speed="13.89" length="0.10" shape="-1795.20,-900.00 -1795.20,-900.00"/>
        <lane id=":gneJ16_2_1" index="1" speed="13.89" length="0.10" shape="-1798.40,-900.00 -1798.40,-900.00"/>
    </edge>
    <edge id=":gneJ9_0" function="internal">
        <lane id=":gneJ9_0_0" index="0" speed="13.89" length="0.10" shape="-2300.00,-404.80 -2300.00,-404.80"/>
        <lane id=":gneJ9_0_1" index="1" speed="13.89" length="0.10" shape="-2300.00,-401.60 -2300.00,-401.60"/>
    </edge>
    <edge id=":gneJ9_2" function="internal">
        <lane id=":gneJ9_2_0" index="0" speed="13.89" length="0.10" shape="-2300.00,-395.20 -2300.00,-395.20"/>
        <lane id=":gneJ9_2_1" index="1" speed="13.89" length="0.10" shape="-2300.00,-398.40 -2300.00,-398.40"/>
    </edge>

    <edge id="-gneE10" from="gneJ10" to="gneJ12" priority="-1">
        <lane id="-gneE10_0" index="0" speed="13.89" length="489.60" shape="-1804.80,-389.60 -1804.80,100.00"/>
        <lane id="-gneE10_1" index="1" speed="13.89" length="489.60" shape="-1801.60,-389.60 -1801.60,100.00"/>
    </edge>
    <edge id="-gneE11" from="gneJ14" to="gneJ13" priority="-1">
        <lane id="-gneE11_0" index="0" speed="13.89" length="100.00" shape="-1300.00,-395.20 -1200.00,-395.20"/>
        <lane id="-gneE11_1" index="1" speed="13.89" length="100.00" shape="-1300.00,-398.40 -1200.00,-398.40"/>
    </edge>
    <edge id="-gneE12" from="gneJ10" to="gneJ14" priority="-1">
        <lane id="-gneE12_0" index="0" speed="13.89" length="489.60" shape="-1789.60,-395.20 -1300.00,-395.20"/>
        <lane id="-gneE12_1" index="1" speed="13.89" length="489.60" shape="-1789.60,-398.40 -1300.00,-398.40"/>
    </edge>
    <edge id="-gneE13" from="gneJ16" to="gneJ15" priority="-1">
        <lane id="-gneE13_0" index="0" speed="13.89" length="100.00" shape="-1795.20,-900.00 -1795.20,-1000.00"/>
        <lane id="-gneE13_1" index="1" speed="13.89" length="100.00" shape="-1798.40,-900.00 -1798.40,-1000.00"/>
    </edge>
    <edge id="-gneE14" from="gneJ10" to="gneJ16" priority="-1">
        <lane id="-gneE14_0" index="0" speed="13.89" length="489.60" shape="-1795.20,-410.40 -1795.20,-900.00"/>
        <lane id="-gneE14_1" index="1" speed="13.89" length="489.60" shape="-1798.40,-410.40 -1798.40,-900.00"/>
    </edge>
    <edge id="-gneE7" from="gneJ9" to="gneJ8" priority="-1">
        <lane id="-gneE7_0" index="0" speed="13.89" length="100.00" shape="-2300.00,-404.80 -2400.00,-404.80"/>
        <lane id="-gneE7_1" index="1" speed="13.89" length="100.00" shape="-2300.00,-401.60 -2400.00,-401.60"/>
    </edge>
    <edge id="-gneE8" from="gneJ10" to="gneJ9" priority="-1">
        <lane id="-gneE8_0" index="0" speed="13.89" length="489.60" shape="-1810.40,-404.80 -2300.00,-404.80"/>
        <lane id="-gneE8_1" index="1" speed="13.89" length="489.60" shape="-1810.40,-401.60 -2300.00,-401.60"/>
    </edge>
    <edge id="-gneE9" from="gneJ12" to="gneJ11" priority="-1">
        <lane id="-gneE9_0" index="0" speed="13.89" length="100.00" shape="-1804.80,100.00 -1804.80,200.00"/>
        <lane id="-gneE9_1" index="1" speed="13.89" length="100.00" shape="-1801.60,100.00 -1801.60,200.00"/>
    </edge>
    <edge id="gneE10" from="gneJ12" to="gneJ10" priority="-1">
        <lane id="gneE10_0" index="0" speed="13.89" length="489.60" shape="-1795.20,100.00 -1795.20,-389.60"/>
        <lane id="gneE10_1" index="1" speed="13.89" length="489.60" shape="-1798.40,100.00 -1798.40,-389.60"/>
    </edge>
    <edge id="gneE11" from="gneJ13" to="gneJ14" priority="-1">
        <lane id="gneE11_0" index="0" speed="13.89" length="100.00" shape="-1200.00,-404.80 -1300.00,-404.80"/>
        <lane id="gneE11_1" index="1" speed="13.89" length="100.00" shape="-1200.00,-401.60 -1300.00,-401.60"/>
    </edge>
    <edge id="gneE12" from="gneJ14" to="gneJ10" priority="-1">
        <lane id="gneE12_0" index="0" speed="13.89" length="489.60" shape="-1300.00,-404.80 -1789.60,-404.80"/>
        <lane id="gneE12_1" index="1" speed="13.89" length="489.60" shape="-1300.00,-401.60 -1789.60,-401.60"/>
    </edge>
    <edge id="gneE13" from="gneJ15" to="gneJ16" priority="-1">
        <lane id="gneE13_0" index="0" speed="13.89" length="100.00" shape="-1804.80,-1000.00 -1804.80,-900.00"/>
        <lane id="gneE13_1" index="1" speed="13.89" length="100.00" shape="-1801.60,-1000.00 -1801.60,-900.00"/>
    </edge>
    <edge id="gneE14" from="gneJ16" to="gneJ10" priority="-1">
        <lane id="gneE14_0" index="0" speed="13.89" length="489.60" shape="-1804.80,-900.00 -1804.80,-410.40"/>
        <lane id="gneE14_1" index="1" speed="13.89" length="489.60" shape="-1801.60,-900.00 -1801.60,-410.40"/>
    </edge>
    <edge id="gneE7" from="gneJ8" to="gneJ9" priority="-1">
        <lane id="gneE7_0" index="0" speed="13.89" length="100.00" shape="-2400.00,-395.20 -2300.00,-395.20"/>
        <lane id="gneE7_1" index="1" speed="13.89" length="100.00" shape="-2400.00,-398.40 -2300.00,-398.40"/>
    </edge>
    <edge id="gneE8" from="gneJ9" to="gneJ10" priority="-1">
        <lane id="gneE8_0" index="0" speed="13.89" length="489.60" shape="-2300.00,-395.20 -1810.40,-395.20"/>
        <lane id="gneE8_1" index="1" speed="13.89" length="489.60" shape="-2300.00,-398.40 -1810.40,-398.40"/>
    </edge>
    <edge id="gneE9" from="gneJ11" to="gneJ12" priority="-1">
        <lane id="gneE9_0" index="0" speed="13.89" length="100.00" shape="-1795.20,200.00 -1795.20,100.00"/>
        <lane id="gneE9_1" index="1" speed="13.89" length="100.00" shape="-1798.40,200.00 -1798.40,100.00"/>
    </edge>

    <tlLogic id="gneJ10" type="static" programID="0" offset="0">
        <phase duration="1"  state="rrrrrrrrrrrr"/>
    </tlLogic>

    <junction id="gneJ10" type="traffic_light" x="-1800.00" y="-400.00" incLanes="gneE14_0 gneE14_1 gneE12_0 gneE12_1 gneE10_0 gneE10_1 gneE8_0 gneE8_1" intLanes=":gneJ10_0_0 :gneJ10_1_0 :gneJ10_2_0 :gneJ10_3_0 :gneJ10_4_0 :gneJ10_5_0 :gneJ10_6_0 :gneJ10_7_0 :gneJ10_8_0 :gneJ10_9_0 :gneJ10_10_0 :gneJ10_11_0" shape="-1806.40,-410.40 -1793.60,-410.40 -1793.16,-408.18 -1792.60,-407.40 -1791.82,-406.84 -1790.82,-406.51 -1789.60,-406.40 -1789.60,-393.60 -1791.82,-393.16 -1792.60,-392.60 -1793.16,-391.82 -1793.49,-390.82 -1793.60,-389.60 -1806.40,-389.60 -1806.84,-391.82 -1807.40,-392.60 -1808.18,-393.16 -1809.18,-393.49 -1810.40,-393.60 -1810.40,-406.40 -1808.18,-406.84 -1807.40,-407.40 -1806.84,-408.18 -1806.51,-409.18">
        <request index="0"  response="000000000000" foes="000000010000" cont="0"/>
        <request index="1"  response="000000000000" foes="111100010000" cont="0"/>
        <request index="2"  response="000010000000" foes="100010110000" cont="0"/>
        <request index="3"  response="000010000000" foes="000010000000" cont="0"/>
        <request index="4"  response="000010000111" foes="100010000111" cont="0"/>
        <request index="5"  response="010110000100" foes="010110000100" cont="0"/>
        <request index="6"  response="000000000000" foes="010000000000" cont="0"/>
        <request index="7"  response="000000000000" foes="010000111100" cont="0"/>
        <request index="8"  response="000000000010" foes="110000100010" cont="0"/>
        <request index="9"  response="000000000010" foes="000000000010" cont="0"/>
        <request index="10" response="000111000010" foes="000111100010" cont="0"/>
        <request index="11" response="000100010110" foes="000100010110" cont="0"/>
    </junction>
    <junction id="gneJ11" type="dead_end" x="-1800.00" y="200.00" incLanes="-gneE9_0 -gneE9_1" intLanes="" shape="-1800.00,200.00 -1806.40,200.00 -1800.00,200.00"/>
    <junction id="gneJ12" type="priority" x="-1800.00" y="100.00" incLanes="-gneE10_0 -gneE10_1 gneE9_0 gneE9_1" intLanes=":gneJ12_0_0 :gneJ12_0_1 :gneJ12_2_0 :gneJ12_2_1" shape="-1806.40,100.00 -1793.60,100.00 -1806.40,100.00">
        <request index="0" response="0000" foes="0000" cont="0"/>
        <request index="1" response="0000" foes="0000" cont="0"/>
        <request index="2" response="0000" foes="0000" cont="0"/>
        <request index="3" response="0000" foes="0000" cont="0"/>
    </junction>
    <junction id="gneJ13" type="dead_end" x="-1200.00" y="-400.00" incLanes="-gneE11_0 -gneE11_1" intLanes="" shape="-1200.00,-400.00 -1200.00,-393.60 -1200.00,-400.00"/>
    <junction id="gneJ14" type="priority" x="-1300.00" y="-400.00" incLanes="gneE11_0 gneE11_1 -gneE12_0 -gneE12_1" intLanes=":gneJ14_0_0 :gneJ14_0_1 :gneJ14_2_0 :gneJ14_2_1" shape="-1300.00,-406.40 -1300.00,-393.60 -1300.00,-406.40">
        <request index="0" response="0000" foes="0000" cont="0"/>
        <request index="1" response="0000" foes="0000" cont="0"/>
        <request index="2" response="0000" foes="0000" cont="0"/>
        <request index="3" response="0000" foes="0000" cont="0"/>
    </junction>
    <junction id="gneJ15" type="dead_end" x="-1800.00" y="-1000.00" incLanes="-gneE13_0 -gneE13_1" intLanes="" shape="-1800.00,-1000.00 -1793.60,-1000.00 -1800.00,-1000.00"/>
    <junction id="gneJ16" type="priority" x="-1800.00" y="-900.00" incLanes="gneE13_0 gneE13_1 -gneE14_0 -gneE14_1" intLanes=":gneJ16_0_0 :gneJ16_0_1 :gneJ16_2_0 :gneJ16_2_1" shape="-1806.40,-900.00 -1793.60,-900.00 -1806.40,-900.00">
        <request index="0" response="0000" foes="0000" cont="0"/>
        <request index="1" response="0000" foes="0000" cont="0"/>
        <request index="2" response="0000" foes="0000" cont="0"/>
        <request index="3" response="0000" foes="0000" cont="0"/>
    </junction>
    <junction id="gneJ8" type="dead_end" x="-2400.00" y="-400.00" incLanes="-gneE7_0 -gneE7_1" intLanes="" shape="-2400.00,-400.00 -2400.00,-406.40 -2400.00,-400.00"/>
    <junction id="gneJ9" type="priority" x="-2300.00" y="-400.00" incLanes="-gneE8_0 -gneE8_1 gneE7_0 gneE7_1" intLanes=":gneJ9_0_0 :gneJ9_0_1 :gneJ9_2_0 :gneJ9_2_1" shape="-2300.00,-406.40 -2300.00,-393.60 -2300.00,-406.40">
        <request index="0" response="0000" foes="0000" cont="0"/>
        <request index="1" response="0000" foes="0000" cont="0"/>
        <request index="2" response="0000" foes="0000" cont="0"/>
        <request index="3" response="0000" foes="0000" cont="0"/>
    </junction>

    <connection from="-gneE10" to="-gneE9" fromLane="0" toLane="0" via=":gneJ12_0_0" dir="s" state="M"/>
    <connection from="-gneE10" to="-gneE9" fromLane="1" toLane="1" via=":gneJ12_0_1" dir="s" state="M"/>
    <connection from="-gneE12" to="-gneE11" fromLane="0" toLane="0" via=":gneJ14_2_0" dir="s" state="M"/>
    <connection from="-gneE12" to="-gneE11" fromLane="1" toLane="1" via=":gneJ14_2_1" dir="s" state="M"/>
    <connection from="-gneE14" to="-gneE13" fromLane="0" toLane="0" via=":gneJ16_2_0" dir="s" state="M"/>
    <connection from="-gneE14" to="-gneE13" fromLane="1" toLane="1" via=":gneJ16_2_1" dir="s" state="M"/>
    <connection from="-gneE8" to="-gneE7" fromLane="0" toLane="0" via=":gneJ9_0_0" dir="s" state="M"/>
    <connection from="-gneE8" to="-gneE7" fromLane="1" toLane="1" via=":gneJ9_0_1" dir="s" state="M"/>
    <connection from="gneE10" to="-gneE12" fromLane="0" toLane="0" via=":gneJ10_6_0" tl="gneJ10" linkIndex="6" dir="l" state="O"/>
    <connection from="gneE10" to="-gneE14" fromLane="0" toLane="0" via=":gneJ10_7_0" tl="gneJ10" linkIndex="7" dir="s" state="O"/>
    <connection from="gneE10" to="-gneE8" fromLane="1" toLane="1" via=":gneJ10_8_0" tl="gneJ10" linkIndex="8" dir="r" state="o"/>
    <connection from="gneE11" to="gneE12" fromLane="0" toLane="0" via=":gneJ14_0_0" dir="s" state="M"/>
    <connection from="gneE11" to="gneE12" fromLane="1" toLane="1" via=":gneJ14_0_1" dir="s" state="M"/>
    <connection from="gneE12" to="-gneE14" fromLane="0" toLane="0" via=":gneJ10_3_0" tl="gneJ10" linkIndex="3" dir="l" state="o"/>
    <connection from="gneE12" to="-gneE8" fromLane="0" toLane="0" via=":gneJ10_4_0" tl="gneJ10" linkIndex="4" dir="s" state="o"/>
    <connection from="gneE12" to="-gneE10" fromLane="1" toLane="1" via=":gneJ10_5_0" tl="gneJ10" linkIndex="5" dir="r" state="o"/>
    <connection from="gneE13" to="gneE14" fromLane="0" toLane="0" via=":gneJ16_0_0" dir="s" state="M"/>
    <connection from="gneE13" to="gneE14" fromLane="1" toLane="1" via=":gneJ16_0_1" dir="s" state="M"/>
    <connection from="gneE14" to="-gneE8" fromLane="0" toLane="0" via=":gneJ10_0_0" tl="gneJ10" linkIndex="0" dir="l" state="O"/>
    <connection from="gneE14" to="-gneE10" fromLane="0" toLane="0" via=":gneJ10_1_0" tl="gneJ10" linkIndex="1" dir="s" state="O"/>
    <connection from="gneE14" to="-gneE12" fromLane="1" toLane="1" via=":gneJ10_2_0" tl="gneJ10" linkIndex="2" dir="r" state="o"/>
    <connection from="gneE7" to="gneE8" fromLane="0" toLane="0" via=":gneJ9_2_0" dir="s" state="M"/>
    <connection from="gneE7" to="gneE8" fromLane="1" toLane="1" via=":gneJ9_2_1" dir="s" state="M"/>
    <connection from="gneE8" to="-gneE10" fromLane="0" toLane="0" via=":gneJ10_9_0" tl="gneJ10" linkIndex="9" dir="l" state="o"/>
    <connection from="gneE8" to="-gneE12" fromLane="0" toLane="0" via=":gneJ10_10_0" tl="gneJ10" linkIndex="10" dir="s" state="o"/>
    <connection from="gneE8" to="-gneE14" fromLane="1" toLane="1" via=":gneJ10_11_0" tl="gneJ10" linkIndex="11" dir="r" state="o"/>
    <connection from="gneE9" to="gneE10" fromLane="0" toLane="0" via=":gneJ12_2_0" dir="s" state="M"/>
    <connection from="gneE9" to="gneE10" fromLane="1" toLane="1" via=":gneJ12_2_1" dir="s" state="M"/>

    <connection from=":gneJ10_0" to="-gneE8" fromLane="0" toLane="0" dir="l" state="M"/>
    <connection from=":gneJ10_1" to="-gneE10" fromLane="0" toLane="0" dir="s" state="M"/>
    <connection from=":gneJ10_2" to="-gneE12" fromLane="0" toLane="1" dir="r" state="M"/>
    <connection from=":gneJ10_3" to="-gneE14" fromLane="0" toLane="0" dir="l" state="M"/>
    <connection from=":gneJ10_4" to="-gneE8" fromLane="0" toLane="0" dir="s" state="M"/>
    <connection from=":gneJ10_5" to="-gneE10" fromLane="0" toLane="1" dir="r" state="M"/>
    <connection from=":gneJ10_6" to="-gneE12" fromLane="0" toLane="0" dir="l" state="M"/>
    <connection from=":gneJ10_7" to="-gneE14" fromLane="0" toLane="0" dir="s" state="M"/>
    <connection from=":gneJ10_8" to="-gneE8" fromLane="0" toLane="1" dir="r" state="M"/>
    <connection from=":gneJ10_9" to="-gneE10" fromLane="0" toLane="0" dir="l" state="M"/>
    <connection from=":gneJ10_10" to="-gneE12" fromLane="0" toLane="0" dir="s" state="M"/>
    <connection from=":gneJ10_11" to="-gneE14" fromLane="0" toLane="1" dir="r" state="M"/>
    <connection from=":gneJ12_0" to="-gneE9" fromLane="0" toLane="0" dir="s" state="M"/>
    <connection from=":gneJ12_0" to="-gneE9" fromLane="1" toLane="1" dir="s" state="M"/>
    <connection from=":gneJ12_2" to="gneE10" fromLane="0" toLane="0" dir="s" state="M"/>
    <connection from=":gneJ12_2" to="gneE10" fromLane="1" toLane="1" dir="s" state="M"/>
    <connection from=":gneJ14_0" to="gneE12" fromLane="0" toLane="0" dir="s" state="M"/>
    <connection from=":gneJ14_0" to="gneE12" fromLane="1" toLane="1" dir="s" state="M"/>
    <connection from=":gneJ14_2" to="-gneE11" fromLane="0" toLane="0" dir="s" state="M"/>
    <connection from=":gneJ14_2" to="-gneE11" fromLane="1" toLane="1" dir="s" state="M"/>
    <connection from=":gneJ16_0" to="gneE14" fromLane="0" toLane="0" dir="s" state="M"/>
    <connection from=":gneJ16_0" to="gneE14" fromLane="1" toLane="1" dir="s" state="M"/>
    <connection from=":gneJ16_2" to="-gneE13" fromLane="0" toLane="0" dir="s" state="M"/>
    <connection from=":gneJ16_2" to="-gneE13" fromLane="1" toLane="1" dir="s" state="M"/>
    <connection from=":gneJ9_0" to="-gneE7" fromLane="0" toLane="0" dir="s" state="M"/>
    <connection from=":gneJ9_0" to="-gneE7" fromLane="1" toLane="1" dir="s" state="M"/>
    <connection from=":gneJ9_2" to="gneE8" fromLane="0" toLane="0" dir="s" state="M"/>
    <connection from=":gneJ9_2" to="gneE8" fromLane="1" toLane="1" dir="s" state="M"/>

</net>
