<?xml version="1.0" encoding="UTF-8"?>

<!-- generated on 03/29/21 19:10:56 by Eclipse SUMO netedit Version 1.6.0
<configuration xmlns:xsi="http://www.w3.org/2001/XMLSchema-instance" xsi:noNamespaceSchemaLocation="http://sumo.dlr.de/xsd/netconvertConfiguration.xsd">

    <input>
        <sumo-net-file value="D:\Picasso\kmitl_ce4\Project\Reinforcement_traffic_control\Semester_2\map\36-way\36-way.net.xml"/>
    </input>

    <output>
        <output-file value="D:\Picasso\kmitl_ce4\Project\Reinforcement_traffic_control\Semester_2\map\36-way\36-way.net.xml"/>
    </output>

    <processing>
        <geometry.min-radius.fix.railways value="false"/>
        <geometry.max-grade.fix value="false"/>
        <offset.disable-normalization value="true"/>
        <lefthand value="true"/>
    </processing>

    <junctions>
        <no-turnarounds value="true"/>
        <junctions.corner-detail value="5"/>
        <junctions.limit-turn-speed value="5.5"/>
        <rectangular-lane-cut value="false"/>
    </junctions>

    <pedestrian>
        <walkingareas value="false"/>
    </pedestrian>

    <netedit>
        <additional-files value="D:\Picasso\kmitl_ce4\Project\Reinforcement_traffic_control\Semester_2\map\36-way\36-way.add.xml"/>
    </netedit>

    <report>
        <aggregate-warnings value="5"/>
    </report>

</configuration>
-->

<additional xmlns:xsi="http://www.w3.org/2001/XMLSchema-instance" xsi:noNamespaceSchemaLocation="http://sumo.dlr.de/xsd/additional_file.xsd">
    <e1Detector id="a1_TFL_1_0" lane="InB_WN_2_1" pos="1.00" freq="900.00" file="e1.xml"/>
    <e1Detector id="a1_TFL_1_1" lane="InB_WN_2_0" pos="1.00" freq="900.00" file="e1.xml"/>
    <e1Detector id="a1_TFL_1_2" lane="InB_NW_2_1" pos="1.00" freq="900.00" file="e1.xml"/>
    <e1Detector id="a1_TFL_1_3" lane="InB_NW_2_0" pos="1.00" freq="900.00" file="e1.xml"/>
    <e1Detector id="a1_TFL_1_4" lane="Mid_NW_2_1" pos="1.00" freq="900.00" file="e1.xml"/>
    <e1Detector id="a1_TFL_1_5" lane="Mid_NW_2_0" pos="1.00" freq="900.00" file="e1.xml"/>
    <e1Detector id="a1_TFL_1_6" lane="Mid_WN_1_1" pos="1.00" freq="900.00" file="e1.xml"/>
    <e1Detector id="a1_TFL_1_7" lane="Mid_WN_1_0" pos="1.00" freq="900.00" file="e1.xml"/>
    <e1Detector id="a1_TFL_2_0" lane="Mid_NW_1_1" pos="1.00" freq="900.00" file="e1.xml"/>
    <e1Detector id="a1_TFL_2_1" lane="Mid_NW_1_0" pos="1.00" freq="900.00" file="e1.xml"/>
    <e1Detector id="a1_TFL_2_2" lane="InB_NM_2_1" pos="1.00" freq="900.00" file="e1.xml"/>
    <e1Detector id="a1_TFL_2_3" lane="InB_NM_2_0" pos="1.00" freq="900.00" file="e1.xml"/>
    <e1Detector id="a1_TFL_2_4" lane="Mid_NE_2_1" pos="1.00" freq="900.00" file="e1.xml"/>
    <e1Detector id="a1_TFL_2_5" lane="Mid_NE_2_0" pos="1.00" freq="900.00" file="e1.xml"/>
    <e1Detector id="a1_TFL_2_6" lane="Mid_N_1_1" pos="1.00" freq="900.00" file="e1.xml"/>
    <e1Detector id="a1_TFL_2_7" lane="Mid_N_1_0" pos="1.00" freq="900.00" file="e1.xml"/>
    <e1Detector id="a1_TFL_3_0" lane="Mid_NE_1_1" pos="1.00" freq="900.00" file="e1.xml"/>
    <e1Detector id="a1_TFL_3_1" lane="Mid_NE_1_0" pos="1.00" freq="900.00" file="e1.xml"/>
    <e1Detector id="a1_TFL_3_2" lane="InB_NE_2_1" pos="1.00" freq="900.00" file="e1.xml"/>
    <e1Detector id="a1_TFL_3_3" lane="InB_NE_2_0" pos="1.00" freq="900.00" file="e1.xml"/>
    <e1Detector id="a1_TFL_3_4" lane="InB_EN_2_1" pos="1.00" freq="900.00" file="e1.xml"/>
    <e1Detector id="a1_TFL_3_5" lane="InB_EN_2_0" pos="1.00" freq="900.00" file="e1.xml"/>
    <e1Detector id="a1_TFL_3_6" lane="Mid_EN_1_1" pos="1.00" freq="900.00" file="e1.xml"/>
    <e1Detector id="a1_TFL_3_7" lane="Mid_EN_1_0" pos="1.00" freq="900.00" file="e1.xml"/>
    <e1Detector id="a1_TFL_4_0" lane="InB_WM_2_1" pos="1.00" freq="900.00" file="e1.xml"/>
    <e1Detector id="a1_TFL_4_1" lane="InB_WM_2_0" pos="1.00" freq="900.00" file="e1.xml"/>
    <e1Detector id="a1_TFL_4_2" lane="Mid_WN_2_1" pos="1.00" freq="900.00" file="e1.xml"/>
    <e1Detector id="a1_TFL_4_3" lane="Mid_WN_2_0" pos="1.00" freq="900.00" file="e1.xml"/>
    <e1Detector id="a1_TFL_4_4" lane="Mid_W_2_1" pos="1.00" freq="900.00" file="e1.xml"/>
    <e1Detector id="a1_TFL_4_5" lane="Mid_W_2_0" pos="1.00" freq="900.00" file="e1.xml"/>
    <e1Detector id="a1_TFL_4_6" lane="Mid_WS_1_1" pos="1.00" freq="900.00" file="e1.xml"/>
    <e1Detector id="a1_TFL_4_7" lane="Mid_WS_1_0" pos="1.00" freq="900.00" file="e1.xml"/>
    <e1Detector id="a1_TFL_5_0" lane="Mid_W_1_1" pos="1.00" freq="900.00" file="e1.xml"/>
    <e1Detector id="a1_TFL_5_1" lane="Mid_W_1_0" pos="1.00" freq="900.00" file="e1.xml"/>
    <e1Detector id="a1_TFL_5_2" lane="Mid_N_2_1" pos="1.00" freq="900.00" file="e1.xml"/>
    <e1Detector id="a1_TFL_5_3" lane="Mid_N_2_0" pos="1.00" freq="900.00" file="e1.xml"/>
    <e1Detector id="a1_TFL_5_4" lane="Mid_E_2_1" pos="1.00" freq="900.00" file="e1.xml"/>
    <e1Detector id="a1_TFL_5_5" lane="Mid_E_2_0" pos="1.00" freq="900.00" file="e1.xml"/>
    <e1Detector id="a1_TFL_5_6" lane="Mid_S_1_1" pos="1.00" freq="900.00" file="e1.xml"/>
    <e1Detector id="a1_TFL_5_7" lane="Mid_S_1_0" pos="1.00" freq="900.00" file="e1.xml"/>
    <e1Detector id="a1_TFL_6_0" lane="Mid_E_1_1" pos="1.00" freq="900.00" file="e1.xml"/>
    <e1Detector id="a1_TFL_6_1" lane="Mid_E_1_0" pos="1.00" freq="900.00" file="e1.xml"/>
    <e1Detector id="a1_TFL_6_2" lane="Mid_EN_2_1" pos="1.00" freq="900.00" file="e1.xml"/>
    <e1Detector id="a1_TFL_6_3" lane="Mid_EN_2_0" pos="1.00" freq="900.00" file="e1.xml"/>
    <e1Detector id="a1_TFL_6_4" lane="InB_EM_2_1" pos="1.00" freq="900.00" file="e1.xml"/>
    <e1Detector id="a1_TFL_6_5" lane="InB_EM_2_0" pos="1.00" freq="900.00" file="e1.xml"/>
    <e1Detector id="a1_TFL_6_6" lane="Mid_ES_1_1" pos="1.00" freq="900.00" file="e1.xml"/>
    <e1Detector id="a1_TFL_6_7" lane="Mid_ES_1_0" pos="1.00" freq="900.00" file="e1.xml"/>
    <e1Detector id="a1_TFL_7_0" lane="InB_WS_2_1" pos="1.00" freq="900.00" file="e1.xml"/>
    <e1Detector id="a1_TFL_7_1" lane="InB_WS_2_0" pos="1.00" freq="900.00" file="e1.xml"/>
    <e1Detector id="a1_TFL_7_2" lane="Mid_WS_2_1" pos="1.00" freq="900.00" file="e1.xml"/>
    <e1Detector id="a1_TFL_7_3" lane="Mid_WS_2_0" pos="1.00" freq="900.00" file="e1.xml"/>
    <e1Detector id="a1_TFL_7_4" lane="Mid_SW_2_1" pos="1.00" freq="900.00" file="e1.xml"/>
    <e1Detector id="a1_TFL_7_5" lane="Mid_SW_2_0" pos="1.00" freq="900.00" file="e1.xml"/>
    <e1Detector id="a1_TFL_7_6" lane="InB_SW_2_1" pos="1.00" freq="900.00" file="e1.xml"/>
    <e1Detector id="a1_TFL_7_7" lane="InB_SW_2_0" pos="1.00" freq="900.00" file="e1.xml"/>
    <e1Detector id="a1_TFL_8_0" lane="Mid_SW_1_1" pos="1.00" freq="900.00" file="e1.xml"/>
    <e1Detector id="a1_TFL_8_1" lane="Mid_SW_1_0" pos="1.00" freq="900.00" file="e1.xml"/>
    <e1Detector id="a1_TFL_8_2" lane="Mid_S_2_1" pos="1.00" freq="900.00" file="e1.xml"/>
    <e1Detector id="a1_TFL_8_3" lane="Mid_S_2_0" pos="1.00" freq="900.00" file="e1.xml"/>
    <e1Detector id="a1_TFL_8_4" lane="Mid_SE_2_1" pos="1.00" freq="900.00" file="e1.xml"/>
    <e1Detector id="a1_TFL_8_5" lane="Mid_SE_2_0" pos="1.00" freq="900.00" file="e1.xml"/>
    <e1Detector id="a1_TFL_8_6" lane="InB_SM_2_1" pos="1.00" freq="900.00" file="e1.xml"/>
    <e1Detector id="a1_TFL_8_7" lane="InB_SM_2_0" pos="1.00" freq="900.00" file="e1.xml"/>
    <e1Detector id="a1_TFL_9_0" lane="Mid_SE_1_1" pos="1.00" freq="900.00" file="e1.xml"/>
    <e1Detector id="a1_TFL_9_1" lane="Mid_SE_1_0" pos="1.00" freq="900.00" file="e1.xml"/>
    <e1Detector id="a1_TFL_9_2" lane="Mid_ES_2_1" pos="1.00" freq="900.00" file="e1.xml"/>
    <e1Detector id="a1_TFL_9_3" lane="Mid_ES_2_0" pos="1.00" freq="900.00" file="e1.xml"/>
    <e1Detector id="a1_TFL_9_4" lane="InB_ES_2_1" pos="1.00" freq="900.00" file="e1.xml"/>
    <e1Detector id="a1_TFL_9_5" lane="InB_ES_2_0" pos="1.00" freq="900.00" file="e1.xml"/>
    <e1Detector id="a1_TFL_9_6" lane="InB_SE_2_1" pos="1.00" freq="900.00" file="e1.xml"/>
    <e1Detector id="a1_TFL_9_7" lane="InB_SE_2_0" pos="1.00" freq="900.00" file="e1.xml"/>
    <e1Detector id="e1_TFL_1_0" lane="InB_WN_2_1" pos="-1.00" freq="900.00" file="e1.xml"/>
    <e1Detector id="e1_TFL_1_1" lane="InB_WN_2_0" pos="-1.00" freq="900.00" file="e1.xml"/>
    <e1Detector id="e1_TFL_1_2" lane="InB_NW_2_1" pos="-1.00" freq="900.00" file="e1.xml"/>
    <e1Detector id="e1_TFL_1_3" lane="InB_NW_2_0" pos="-1.00" freq="900.00" file="e1.xml"/>
    <e1Detector id="e1_TFL_1_4" lane="Mid_NW_2_1" pos="-1.00" freq="900.00" file="e1.xml"/>
    <e1Detector id="e1_TFL_1_5" lane="Mid_NW_2_0" pos="-1.00" freq="900.00" file="e1.xml"/>
    <e1Detector id="e1_TFL_1_6" lane="Mid_WN_1_1" pos="-1.00" freq="900.00" file="e1.xml"/>
    <e1Detector id="e1_TFL_1_7" lane="Mid_WN_1_0" pos="-1.00" freq="900.00" file="e1.xml"/>
    <e1Detector id="e1_TFL_2_0" lane="Mid_NW_1_1" pos="-1.00" freq="900.00" file="e1.xml"/>
    <e1Detector id="e1_TFL_2_1" lane="Mid_NW_1_0" pos="-1.00" freq="900.00" file="e1.xml"/>
    <e1Detector id="e1_TFL_2_2" lane="InB_NM_2_1" pos="-1.00" freq="900.00" file="e1.xml"/>
    <e1Detector id="e1_TFL_2_3" lane="InB_NM_2_0" pos="-1.00" freq="900.00" file="e1.xml"/>
    <e1Detector id="e1_TFL_2_4" lane="Mid_NE_2_1" pos="-1.00" freq="900.00" file="e1.xml"/>
    <e1Detector id="e1_TFL_2_5" lane="Mid_NE_2_0" pos="-1.00" freq="900.00" file="e1.xml"/>
    <e1Detector id="e1_TFL_2_6" lane="Mid_N_1_1" pos="-1.00" freq="900.00" file="e1.xml"/>
    <e1Detector id="e1_TFL_2_7" lane="Mid_N_1_0" pos="-1.00" freq="900.00" file="e1.xml"/>
    <e1Detector id="e1_TFL_3_0" lane="Mid_NE_1_1" pos="-1.00" freq="900.00" file="e1.xml"/>
    <e1Detector id="e1_TFL_3_1" lane="Mid_NE_1_0" pos="-1.00" freq="900.00" file="e1.xml"/>
    <e1Detector id="e1_TFL_3_2" lane="InB_NE_2_1" pos="-1.00" freq="900.00" file="e1.xml"/>
    <e1Detector id="e1_TFL_3_3" lane="InB_NE_2_0" pos="-1.00" freq="900.00" file="e1.xml"/>
    <e1Detector id="e1_TFL_3_4" lane="InB_EN_2_1" pos="-1.00" freq="900.00" file="e1.xml"/>
    <e1Detector id="e1_TFL_3_5" lane="InB_EN_2_0" pos="-1.00" freq="900.00" file="e1.xml"/>
    <e1Detector id="e1_TFL_3_6" lane="Mid_EN_1_1" pos="-1.00" freq="900.00" file="e1.xml"/>
    <e1Detector id="e1_TFL_3_7" lane="Mid_EN_1_0" pos="-1.00" freq="900.00" file="e1.xml"/>
    <e1Detector id="e1_TFL_4_0" lane="InB_WM_2_1" pos="-1.00" freq="900.00" file="e1.xml"/>
    <e1Detector id="e1_TFL_4_1" lane="InB_WM_2_0" pos="-1.00" freq="900.00" file="e1.xml"/>
    <e1Detector id="e1_TFL_4_2" lane="Mid_WN_2_1" pos="-1.00" freq="900.00" file="e1.xml"/>
    <e1Detector id="e1_TFL_4_3" lane="Mid_WN_2_0" pos="-1.00" freq="900.00" file="e1.xml"/>
    <e1Detector id="e1_TFL_4_4" lane="Mid_W_2_1" pos="-1.00" freq="900.00" file="e1.xml"/>
    <e1Detector id="e1_TFL_4_5" lane="Mid_W_2_0" pos="-1.00" freq="900.00" file="e1.xml"/>
    <e1Detector id="e1_TFL_4_6" lane="Mid_WS_1_1" pos="-1.00" freq="900.00" file="e1.xml"/>
    <e1Detector id="e1_TFL_4_7" lane="Mid_WS_1_0" pos="-1.00" freq="900.00" file="e1.xml"/>
    <e1Detector id="e1_TFL_5_0" lane="Mid_W_1_1" pos="-1.00" freq="900.00" file="e1.xml"/>
    <e1Detector id="e1_TFL_5_1" lane="Mid_W_1_0" pos="-1.00" freq="900.00" file="e1.xml"/>
    <e1Detector id="e1_TFL_5_2" lane="Mid_N_2_1" pos="-1.00" freq="900.00" file="e1.xml"/>
    <e1Detector id="e1_TFL_5_3" lane="Mid_N_2_0" pos="-1.00" freq="900.00" file="e1.xml"/>
    <e1Detector id="e1_TFL_5_4" lane="Mid_E_2_1" pos="-1.00" freq="900.00" file="e1.xml"/>
    <e1Detector id="e1_TFL_5_5" lane="Mid_E_2_0" pos="-1.00" freq="900.00" file="e1.xml"/>
    <e1Detector id="e1_TFL_5_6" lane="Mid_S_1_1" pos="-1.00" freq="900.00" file="e1.xml"/>
    <e1Detector id="e1_TFL_5_7" lane="Mid_S_1_0" pos="-1.00" freq="900.00" file="e1.xml"/>
    <e1Detector id="e1_TFL_6_0" lane="Mid_E_1_1" pos="-1.00" freq="900.00" file="e1.xml"/>
    <e1Detector id="e1_TFL_6_1" lane="Mid_E_1_0" pos="-1.00" freq="900.00" file="e1.xml"/>
    <e1Detector id="e1_TFL_6_2" lane="Mid_EN_2_1" pos="-1.00" freq="900.00" file="e1.xml"/>
    <e1Detector id="e1_TFL_6_3" lane="Mid_EN_2_0" pos="-1.00" freq="900.00" file="e1.xml"/>
    <e1Detector id="e1_TFL_6_4" lane="InB_EM_2_1" pos="-1.00" freq="900.00" file="e1.xml"/>
    <e1Detector id="e1_TFL_6_5" lane="InB_EM_2_0" pos="-1.00" freq="900.00" file="e1.xml"/>
    <e1Detector id="e1_TFL_6_6" lane="Mid_ES_1_1" pos="-1.00" freq="900.00" file="e1.xml"/>
    <e1Detector id="e1_TFL_6_7" lane="Mid_ES_1_0" pos="-1.00" freq="900.00" file="e1.xml"/>
    <e1Detector id="e1_TFL_7_0" lane="InB_WS_2_1" pos="-1.00" freq="900.00" file="e1.xml"/>
    <e1Detector id="e1_TFL_7_1" lane="InB_WS_2_0" pos="-1.00" freq="900.00" file="e1.xml"/>
    <e1Detector id="e1_TFL_7_2" lane="Mid_WS_2_1" pos="-1.00" freq="900.00" file="e1.xml"/>
    <e1Detector id="e1_TFL_7_3" lane="Mid_WS_2_0" pos="-1.00" freq="900.00" file="e1.xml"/>
    <e1Detector id="e1_TFL_7_4" lane="Mid_SW_2_1" pos="-1.00" freq="900.00" file="e1.xml"/>
    <e1Detector id="e1_TFL_7_5" lane="Mid_SW_2_0" pos="-1.00" freq="900.00" file="e1.xml"/>
    <e1Detector id="e1_TFL_7_6" lane="InB_SW_2_1" pos="-1.00" freq="900.00" file="e1.xml"/>
    <e1Detector id="e1_TFL_7_7" lane="InB_SW_2_0" pos="-1.00" freq="900.00" file="e1.xml"/>
    <e1Detector id="e1_TFL_8_0" lane="Mid_SW_1_1" pos="-1.00" freq="900.00" file="e1.xml"/>
    <e1Detector id="e1_TFL_8_1" lane="Mid_SW_1_0" pos="-1.00" freq="900.00" file="e1.xml"/>
    <e1Detector id="e1_TFL_8_2" lane="Mid_S_2_1" pos="-1.00" freq="900.00" file="e1.xml"/>
    <e1Detector id="e1_TFL_8_3" lane="Mid_S_2_0" pos="-1.00" freq="900.00" file="e1.xml"/>
    <e1Detector id="e1_TFL_8_4" lane="Mid_SE_2_1" pos="-1.00" freq="900.00" file="e1.xml"/>
    <e1Detector id="e1_TFL_8_5" lane="Mid_SE_2_0" pos="-1.00" freq="900.00" file="e1.xml"/>
    <e1Detector id="e1_TFL_8_6" lane="InB_SM_2_1" pos="-1.00" freq="900.00" file="e1.xml"/>
    <e1Detector id="e1_TFL_8_7" lane="InB_SM_2_0" pos="-1.00" freq="900.00" file="e1.xml"/>
    <e1Detector id="e1_TFL_9_0" lane="Mid_SE_1_1" pos="-1.00" freq="900.00" file="e1.xml"/>
    <e1Detector id="e1_TFL_9_1" lane="Mid_SE_1_0" pos="-1.00" freq="900.00" file="e1.xml"/>
    <e1Detector id="e1_TFL_9_2" lane="Mid_ES_2_1" pos="-1.00" freq="900.00" file="e1.xml"/>
    <e1Detector id="e1_TFL_9_3" lane="Mid_ES_2_0" pos="-1.00" freq="900.00" file="e1.xml"/>
    <e1Detector id="e1_TFL_9_4" lane="InB_ES_2_1" pos="-1.00" freq="900.00" file="e1.xml"/>
    <e1Detector id="e1_TFL_9_5" lane="InB_ES_2_0" pos="-1.00" freq="900.00" file="e1.xml"/>
    <e1Detector id="e1_TFL_9_6" lane="InB_SE_2_1" pos="-1.00" freq="900.00" file="e1.xml"/>
    <e1Detector id="e1_TFL_9_7" lane="InB_SE_2_0" pos="2378.54" freq="900.00" file="e1.xml"/>
</additional>
