<?xml version="1.0" encoding="UTF-8"?>

<!-- generated on 03/25/21 18:09:15 by Eclipse SUMO netedit Version 1.6.0
<configuration xmlns:xsi="http://www.w3.org/2001/XMLSchema-instance" xsi:noNamespaceSchemaLocation="http://sumo.dlr.de/xsd/netconvertConfiguration.xsd">

    <input>
        <sumo-net-file value="D:\Picasso\kmitl_ce4\Project\Reinforcement_traffic_control\Semester_2\map\36-way\36-way.net.xml"/>
    </input>

    <output>
        <output-file value="D:\Picasso\kmitl_ce4\Project\Reinforcement_traffic_control\Semester_2\map\36-way\36-way.net.xml"/>
    </output>

    <processing>
        <geometry.min-radius.fix.railways value="false"/>
        <geometry.max-grade.fix value="false"/>
        <offset.disable-normalization value="true"/>
        <lefthand value="true"/>
    </processing>

    <junctions>
        <no-turnarounds value="true"/>
        <junctions.corner-detail value="5"/>
        <junctions.limit-turn-speed value="5.5"/>
        <rectangular-lane-cut value="false"/>
    </junctions>

    <pedestrian>
        <walkingareas value="false"/>
    </pedestrian>

    <report>
        <aggregate-warnings value="5"/>
    </report>

</configuration>
-->

<net version="1.6" junctionCornerDetail="5" lefthand="true" limitTurnSpeed="5.50" xmlns:xsi="http://www.w3.org/2001/XMLSchema-instance" xsi:noNamespaceSchemaLocation="http://sumo.dlr.de/xsd/net_file.xsd">

    <location netOffset="0.00,0.00" convBoundary="-2500.00,-7500.00,7500.00,2500.00" origBoundary="-10000000000.00,-10000000000.00,10000000000.00,10000000000.00" projParameter="!"/>

    <edge id=":TFL_1_0" function="internal">
        <lane id=":TFL_1_0_0" index="0" speed="6.51" length="9.03" shape="-4.80,-10.40 -5.15,-7.95 -6.20,-6.20 -7.95,-5.15 -10.40,-4.80"/>
    </edge>
    <edge id=":TFL_1_1" function="internal">
        <lane id=":TFL_1_1_0" index="0" speed="13.89" length="20.80" shape="-4.80,-10.40 -4.80,10.40"/>
    </edge>
    <edge id=":TFL_1_2" function="internal">
        <lane id=":TFL_1_2_0" index="0" speed="9.26" length="11.78" shape="-1.60,-10.40 -0.85,-5.15 1.40,-1.40 3.20,-0.32"/>
    </edge>
    <edge id=":TFL_1_12" function="internal">
        <lane id=":TFL_1_12_0" index="0" speed="9.26" length="7.58" shape="3.20,-0.32 5.15,0.85 10.40,1.60"/>
    </edge>
    <edge id=":TFL_1_3" function="internal">
        <lane id=":TFL_1_3_0" index="0" speed="6.51" length="9.03" shape="10.40,-4.80 7.95,-5.15 6.20,-6.20 5.15,-7.95 4.80,-10.40"/>
    </edge>
    <edge id=":TFL_1_4" function="internal">
        <lane id=":TFL_1_4_0" index="0" speed="13.89" length="20.80" shape="10.40,-4.80 -10.40,-4.80"/>
    </edge>
    <edge id=":TFL_1_5" function="internal">
        <lane id=":TFL_1_5_0" index="0" speed="9.26" length="11.78" shape="10.40,-1.60 5.15,-0.85 1.40,1.40 0.32,3.20"/>
    </edge>
    <edge id=":TFL_1_13" function="internal">
        <lane id=":TFL_1_13_0" index="0" speed="9.26" length="7.58" shape="0.32,3.20 -0.85,5.15 -1.60,10.40"/>
    </edge>
    <edge id=":TFL_1_6" function="internal">
        <lane id=":TFL_1_6_0" index="0" speed="6.51" length="9.03" shape="4.80,10.40 5.15,7.95 6.20,6.20 7.95,5.15 10.40,4.80"/>
    </edge>
    <edge id=":TFL_1_7" function="internal">
        <lane id=":TFL_1_7_0" index="0" speed="13.89" length="20.80" shape="4.80,10.40 4.80,-10.40"/>
    </edge>
    <edge id=":TFL_1_8" function="internal">
        <lane id=":TFL_1_8_0" index="0" speed="9.26" length="11.78" shape="1.60,10.40 0.85,5.15 -1.40,1.40 -3.20,0.32"/>
    </edge>
    <edge id=":TFL_1_14" function="internal">
        <lane id=":TFL_1_14_0" index="0" speed="9.26" length="7.58" shape="-3.20,0.32 -5.15,-0.85 -10.40,-1.60"/>
    </edge>
    <edge id=":TFL_1_9" function="internal">
        <lane id=":TFL_1_9_0" index="0" speed="6.51" length="9.03" shape="-10.40,4.80 -7.95,5.15 -6.20,6.20 -5.15,7.95 -4.80,10.40"/>
    </edge>
    <edge id=":TFL_1_10" function="internal">
        <lane id=":TFL_1_10_0" index="0" speed="13.89" length="20.80" shape="-10.40,4.80 10.40,4.80"/>
    </edge>
    <edge id=":TFL_1_11" function="internal">
        <lane id=":TFL_1_11_0" index="0" speed="9.26" length="11.78" shape="-10.40,1.60 -5.15,0.85 -1.40,-1.40 -0.32,-3.20"/>
    </edge>
    <edge id=":TFL_1_15" function="internal">
        <lane id=":TFL_1_15_0" index="0" speed="9.26" length="7.58" shape="-0.32,-3.20 0.85,-5.15 1.60,-10.40"/>
    </edge>
    <edge id=":TFL_2_0" function="internal">
        <lane id=":TFL_2_0_0" index="0" speed="6.51" length="9.03" shape="2495.20,-10.40 2494.85,-7.95 2493.80,-6.20 2492.05,-5.15 2489.60,-4.80"/>
    </edge>
    <edge id=":TFL_2_1" function="internal">
        <lane id=":TFL_2_1_0" index="0" speed="13.89" length="20.80" shape="2495.20,-10.40 2495.20,10.40"/>
        <lane id=":TFL_2_1_1" index="1" speed="13.89" length="20.80" shape="2498.40,-10.40 2498.40,10.40"/>
    </edge>
    <edge id=":TFL_2_3" function="internal">
        <lane id=":TFL_2_3_0" index="0" speed="9.26" length="6.96" shape="2498.40,-10.40 2499.15,-5.15 2500.00,-3.73"/>
    </edge>
    <edge id=":TFL_2_16" function="internal">
        <lane id=":TFL_2_16_0" index="0" speed="9.26" length="12.40" shape="2500.00,-3.73 2501.40,-1.40 2505.15,0.85 2510.40,1.60"/>
    </edge>
    <edge id=":TFL_2_4" function="internal">
        <lane id=":TFL_2_4_0" index="0" speed="6.51" length="9.03" shape="2510.40,-4.80 2507.95,-5.15 2506.20,-6.20 2505.15,-7.95 2504.80,-10.40"/>
    </edge>
    <edge id=":TFL_2_5" function="internal">
        <lane id=":TFL_2_5_0" index="0" speed="13.89" length="20.80" shape="2510.40,-4.80 2489.60,-4.80"/>
        <lane id=":TFL_2_5_1" index="1" speed="13.89" length="20.80" shape="2510.40,-1.60 2489.60,-1.60"/>
    </edge>
    <edge id=":TFL_2_7" function="internal">
        <lane id=":TFL_2_7_0" index="0" speed="9.26" length="6.96" shape="2510.40,-1.60 2505.15,-0.85 2503.73,-0.00"/>
    </edge>
    <edge id=":TFL_2_17" function="internal">
        <lane id=":TFL_2_17_0" index="0" speed="9.26" length="12.40" shape="2503.73,-0.00 2501.40,1.40 2499.15,5.15 2498.40,10.40"/>
    </edge>
    <edge id=":TFL_2_8" function="internal">
        <lane id=":TFL_2_8_0" index="0" speed="6.51" length="9.03" shape="2504.80,10.40 2505.15,7.95 2506.20,6.20 2507.95,5.15 2510.40,4.80"/>
    </edge>
    <edge id=":TFL_2_9" function="internal">
        <lane id=":TFL_2_9_0" index="0" speed="13.89" length="20.80" shape="2504.80,10.40 2504.80,-10.40"/>
        <lane id=":TFL_2_9_1" index="1" speed="13.89" length="20.80" shape="2501.60,10.40 2501.60,-10.40"/>
    </edge>
    <edge id=":TFL_2_11" function="internal">
        <lane id=":TFL_2_11_0" index="0" speed="9.26" length="6.96" shape="2501.60,10.40 2500.85,5.15 2500.00,3.73"/>
    </edge>
    <edge id=":TFL_2_18" function="internal">
        <lane id=":TFL_2_18_0" index="0" speed="9.26" length="12.40" shape="2500.00,3.73 2498.60,1.40 2494.85,-0.85 2489.60,-1.60"/>
    </edge>
    <edge id=":TFL_2_12" function="internal">
        <lane id=":TFL_2_12_0" index="0" speed="6.51" length="9.03" shape="2489.60,4.80 2492.05,5.15 2493.80,6.20 2494.85,7.95 2495.20,10.40"/>
    </edge>
    <edge id=":TFL_2_13" function="internal">
        <lane id=":TFL_2_13_0" index="0" speed="13.89" length="20.80" shape="2489.60,4.80 2510.40,4.80"/>
        <lane id=":TFL_2_13_1" index="1" speed="13.89" length="20.80" shape="2489.60,1.60 2510.40,1.60"/>
    </edge>
    <edge id=":TFL_2_15" function="internal">
        <lane id=":TFL_2_15_0" index="0" speed="9.26" length="6.96" shape="2489.60,1.60 2494.85,0.85 2496.27,0.00"/>
    </edge>
    <edge id=":TFL_2_19" function="internal">
        <lane id=":TFL_2_19_0" index="0" speed="9.26" length="12.40" shape="2496.27,0.00 2498.60,-1.40 2500.85,-5.15 2501.60,-10.40"/>
    </edge>
    <edge id=":TFL_3_0" function="internal">
        <lane id=":TFL_3_0_0" index="0" speed="6.51" length="9.03" shape="4995.20,-10.40 4994.85,-7.95 4993.80,-6.20 4992.05,-5.15 4989.60,-4.80"/>
    </edge>
    <edge id=":TFL_3_1" function="internal">
        <lane id=":TFL_3_1_0" index="0" speed="13.89" length="20.80" shape="4995.20,-10.40 4995.20,10.40"/>
    </edge>
    <edge id=":TFL_3_2" function="internal">
        <lane id=":TFL_3_2_0" index="0" speed="9.26" length="11.78" shape="4998.40,-10.40 4999.15,-5.15 5001.40,-1.40 5003.20,-0.32"/>
    </edge>
    <edge id=":TFL_3_12" function="internal">
        <lane id=":TFL_3_12_0" index="0" speed="9.26" length="7.58" shape="5003.20,-0.32 5005.15,0.85 5010.40,1.60"/>
    </edge>
    <edge id=":TFL_3_3" function="internal">
        <lane id=":TFL_3_3_0" index="0" speed="6.51" length="9.03" shape="5010.40,-4.80 5007.95,-5.15 5006.20,-6.20 5005.15,-7.95 5004.80,-10.40"/>
    </edge>
    <edge id=":TFL_3_4" function="internal">
        <lane id=":TFL_3_4_0" index="0" speed="13.89" length="20.80" shape="5010.40,-4.80 4989.60,-4.80"/>
    </edge>
    <edge id=":TFL_3_5" function="internal">
        <lane id=":TFL_3_5_0" index="0" speed="9.26" length="19.35" shape="5010.40,-1.60 5005.15,-0.85 5001.40,1.40 4999.15,5.15 4998.40,10.40"/>
    </edge>
    <edge id=":TFL_3_6" function="internal">
        <lane id=":TFL_3_6_0" index="0" speed="6.51" length="9.03" shape="5004.80,10.40 5005.15,7.95 5006.20,6.20 5007.95,5.15 5010.40,4.80"/>
    </edge>
    <edge id=":TFL_3_7" function="internal">
        <lane id=":TFL_3_7_0" index="0" speed="13.89" length="20.80" shape="5004.80,10.40 5004.80,-10.40"/>
    </edge>
    <edge id=":TFL_3_8" function="internal">
        <lane id=":TFL_3_8_0" index="0" speed="9.26" length="11.78" shape="5001.60,10.40 5000.85,5.15 4998.60,1.40 4996.80,0.32"/>
    </edge>
    <edge id=":TFL_3_13" function="internal">
        <lane id=":TFL_3_13_0" index="0" speed="9.26" length="7.58" shape="4996.80,0.32 4994.85,-0.85 4989.60,-1.60"/>
    </edge>
    <edge id=":TFL_3_9" function="internal">
        <lane id=":TFL_3_9_0" index="0" speed="6.51" length="9.03" shape="4989.60,4.80 4992.05,5.15 4993.80,6.20 4994.85,7.95 4995.20,10.40"/>
    </edge>
    <edge id=":TFL_3_10" function="internal">
        <lane id=":TFL_3_10_0" index="0" speed="13.89" length="20.80" shape="4989.60,4.80 5010.40,4.80"/>
    </edge>
    <edge id=":TFL_3_11" function="internal">
        <lane id=":TFL_3_11_0" index="0" speed="9.26" length="19.35" shape="4989.60,1.60 4994.85,0.85 4998.60,-1.40 5000.85,-5.15 5001.60,-10.40"/>
    </edge>
    <edge id=":TFL_4_0" function="internal">
        <lane id=":TFL_4_0_0" index="0" speed="6.51" length="9.03" shape="-4.80,-2510.40 -5.15,-2507.95 -6.20,-2506.20 -7.95,-2505.15 -10.40,-2504.80"/>
    </edge>
    <edge id=":TFL_4_1" function="internal">
        <lane id=":TFL_4_1_0" index="0" speed="13.89" length="20.80" shape="-4.80,-2510.40 -4.80,-2489.60"/>
    </edge>
    <edge id=":TFL_4_2" function="internal">
        <lane id=":TFL_4_2_0" index="0" speed="9.26" length="11.78" shape="-1.60,-2510.40 -0.85,-2505.15 1.40,-2501.40 3.20,-2500.32"/>
    </edge>
    <edge id=":TFL_4_12" function="internal">
        <lane id=":TFL_4_12_0" index="0" speed="9.26" length="7.58" shape="3.20,-2500.32 5.15,-2499.15 10.40,-2498.40"/>
    </edge>
    <edge id=":TFL_4_3" function="internal">
        <lane id=":TFL_4_3_0" index="0" speed="6.51" length="9.03" shape="10.40,-2504.80 7.95,-2505.15 6.20,-2506.20 5.15,-2507.95 4.80,-2510.40"/>
    </edge>
    <edge id=":TFL_4_4" function="internal">
        <lane id=":TFL_4_4_0" index="0" speed="13.89" length="20.80" shape="10.40,-2504.80 -10.40,-2504.80"/>
    </edge>
    <edge id=":TFL_4_5" function="internal">
        <lane id=":TFL_4_5_0" index="0" speed="9.26" length="11.78" shape="10.40,-2501.60 5.15,-2500.85 1.40,-2498.60 0.32,-2496.80"/>
    </edge>
    <edge id=":TFL_4_13" function="internal">
        <lane id=":TFL_4_13_0" index="0" speed="9.26" length="7.58" shape="0.32,-2496.80 -0.85,-2494.85 -1.60,-2489.60"/>
    </edge>
    <edge id=":TFL_4_6" function="internal">
        <lane id=":TFL_4_6_0" index="0" speed="6.51" length="9.03" shape="4.80,-2489.60 5.15,-2492.05 6.20,-2493.80 7.95,-2494.85 10.40,-2495.20"/>
    </edge>
    <edge id=":TFL_4_7" function="internal">
        <lane id=":TFL_4_7_0" index="0" speed="13.89" length="20.80" shape="4.80,-2489.60 4.80,-2510.40"/>
    </edge>
    <edge id=":TFL_4_8" function="internal">
        <lane id=":TFL_4_8_0" index="0" speed="9.26" length="11.78" shape="1.60,-2489.60 0.85,-2494.85 -1.40,-2498.60 -3.20,-2499.68"/>
    </edge>
    <edge id=":TFL_4_14" function="internal">
        <lane id=":TFL_4_14_0" index="0" speed="9.26" length="7.58" shape="-3.20,-2499.68 -5.15,-2500.85 -10.40,-2501.60"/>
    </edge>
    <edge id=":TFL_4_9" function="internal">
        <lane id=":TFL_4_9_0" index="0" speed="6.51" length="9.03" shape="-10.40,-2495.20 -7.95,-2494.85 -6.20,-2493.80 -5.15,-2492.05 -4.80,-2489.60"/>
    </edge>
    <edge id=":TFL_4_10" function="internal">
        <lane id=":TFL_4_10_0" index="0" speed="13.89" length="20.80" shape="-10.40,-2495.20 10.40,-2495.20"/>
    </edge>
    <edge id=":TFL_4_11" function="internal">
        <lane id=":TFL_4_11_0" index="0" speed="9.26" length="11.78" shape="-10.40,-2498.40 -5.15,-2499.15 -1.40,-2501.40 -0.32,-2503.20"/>
    </edge>
    <edge id=":TFL_4_15" function="internal">
        <lane id=":TFL_4_15_0" index="0" speed="9.26" length="7.58" shape="-0.32,-2503.20 0.85,-2505.15 1.60,-2510.40"/>
    </edge>
    <edge id=":TFL_5_0" function="internal">
        <lane id=":TFL_5_0_0" index="0" speed="6.51" length="9.03" shape="2495.20,-2510.40 2494.85,-2507.95 2493.80,-2506.20 2492.05,-2505.15 2489.60,-2504.80"/>
    </edge>
    <edge id=":TFL_5_1" function="internal">
        <lane id=":TFL_5_1_0" index="0" speed="13.89" length="20.80" shape="2495.20,-2510.40 2495.20,-2489.60"/>
    </edge>
    <edge id=":TFL_5_2" function="internal">
        <lane id=":TFL_5_2_0" index="0" speed="9.26" length="11.78" shape="2498.40,-2510.40 2499.15,-2505.15 2501.40,-2501.40 2503.20,-2500.32"/>
    </edge>
    <edge id=":TFL_5_12" function="internal">
        <lane id=":TFL_5_12_0" index="0" speed="9.26" length="7.58" shape="2503.20,-2500.32 2505.15,-2499.15 2510.40,-2498.40"/>
    </edge>
    <edge id=":TFL_5_3" function="internal">
        <lane id=":TFL_5_3_0" index="0" speed="6.51" length="9.03" shape="2510.40,-2504.80 2507.95,-2505.15 2506.20,-2506.20 2505.15,-2507.95 2504.80,-2510.40"/>
    </edge>
    <edge id=":TFL_5_4" function="internal">
        <lane id=":TFL_5_4_0" index="0" speed="13.89" length="20.80" shape="2510.40,-2504.80 2489.60,-2504.80"/>
    </edge>
    <edge id=":TFL_5_5" function="internal">
        <lane id=":TFL_5_5_0" index="0" speed="9.26" length="11.78" shape="2510.40,-2501.60 2505.15,-2500.85 2501.40,-2498.60 2500.32,-2496.80"/>
    </edge>
    <edge id=":TFL_5_13" function="internal">
        <lane id=":TFL_5_13_0" index="0" speed="9.26" length="7.58" shape="2500.32,-2496.80 2499.15,-2494.85 2498.40,-2489.60"/>
    </edge>
    <edge id=":TFL_5_6" function="internal">
        <lane id=":TFL_5_6_0" index="0" speed="6.51" length="9.03" shape="2504.80,-2489.60 2505.15,-2492.05 2506.20,-2493.80 2507.95,-2494.85 2510.40,-2495.20"/>
    </edge>
    <edge id=":TFL_5_7" function="internal">
        <lane id=":TFL_5_7_0" index="0" speed="13.89" length="20.80" shape="2504.80,-2489.60 2504.80,-2510.40"/>
    </edge>
    <edge id=":TFL_5_8" function="internal">
        <lane id=":TFL_5_8_0" index="0" speed="9.26" length="11.78" shape="2501.60,-2489.60 2500.85,-2494.85 2498.60,-2498.60 2496.80,-2499.68"/>
    </edge>
    <edge id=":TFL_5_14" function="internal">
        <lane id=":TFL_5_14_0" index="0" speed="9.26" length="7.58" shape="2496.80,-2499.68 2494.85,-2500.85 2489.60,-2501.60"/>
    </edge>
    <edge id=":TFL_5_9" function="internal">
        <lane id=":TFL_5_9_0" index="0" speed="6.51" length="9.03" shape="2489.60,-2495.20 2492.05,-2494.85 2493.80,-2493.80 2494.85,-2492.05 2495.20,-2489.60"/>
    </edge>
    <edge id=":TFL_5_10" function="internal">
        <lane id=":TFL_5_10_0" index="0" speed="13.89" length="20.80" shape="2489.60,-2495.20 2510.40,-2495.20"/>
    </edge>
    <edge id=":TFL_5_11" function="internal">
        <lane id=":TFL_5_11_0" index="0" speed="9.26" length="11.78" shape="2489.60,-2498.40 2494.85,-2499.15 2498.60,-2501.40 2499.68,-2503.20"/>
    </edge>
    <edge id=":TFL_5_15" function="internal">
        <lane id=":TFL_5_15_0" index="0" speed="9.26" length="7.58" shape="2499.68,-2503.20 2500.85,-2505.15 2501.60,-2510.40"/>
    </edge>
    <edge id=":TFL_6_0" function="internal">
        <lane id=":TFL_6_0_0" index="0" speed="6.51" length="9.03" shape="4995.20,-2510.40 4994.85,-2507.95 4993.80,-2506.20 4992.05,-2505.15 4989.60,-2504.80"/>
    </edge>
    <edge id=":TFL_6_1" function="internal">
        <lane id=":TFL_6_1_0" index="0" speed="13.89" length="20.80" shape="4995.20,-2510.40 4995.20,-2489.60"/>
        <lane id=":TFL_6_1_1" index="1" speed="13.89" length="20.80" shape="4998.40,-2510.40 4998.40,-2489.60"/>
    </edge>
    <edge id=":TFL_6_3" function="internal">
        <lane id=":TFL_6_3_0" index="0" speed="9.26" length="6.96" shape="4998.40,-2510.40 4999.15,-2505.15 5000.00,-2503.73"/>
    </edge>
    <edge id=":TFL_6_16" function="internal">
        <lane id=":TFL_6_16_0" index="0" speed="9.26" length="12.40" shape="5000.00,-2503.73 5001.40,-2501.40 5005.15,-2499.15 5010.40,-2498.40"/>
    </edge>
    <edge id=":TFL_6_4" function="internal">
        <lane id=":TFL_6_4_0" index="0" speed="6.51" length="9.03" shape="5010.40,-2504.80 5007.95,-2505.15 5006.20,-2506.20 5005.15,-2507.95 5004.80,-2510.40"/>
    </edge>
    <edge id=":TFL_6_5" function="internal">
        <lane id=":TFL_6_5_0" index="0" speed="13.89" length="20.80" shape="5010.40,-2504.80 4989.60,-2504.80"/>
        <lane id=":TFL_6_5_1" index="1" speed="13.89" length="20.80" shape="5010.40,-2501.60 4989.60,-2501.60"/>
    </edge>
    <edge id=":TFL_6_7" function="internal">
        <lane id=":TFL_6_7_0" index="0" speed="9.26" length="6.96" shape="5010.40,-2501.60 5005.15,-2500.85 5003.73,-2500.00"/>
    </edge>
    <edge id=":TFL_6_17" function="internal">
        <lane id=":TFL_6_17_0" index="0" speed="9.26" length="12.40" shape="5003.73,-2500.00 5001.40,-2498.60 4999.15,-2494.85 4998.40,-2489.60"/>
    </edge>
    <edge id=":TFL_6_8" function="internal">
        <lane id=":TFL_6_8_0" index="0" speed="6.51" length="9.03" shape="5004.80,-2489.60 5005.15,-2492.05 5006.20,-2493.80 5007.95,-2494.85 5010.40,-2495.20"/>
    </edge>
    <edge id=":TFL_6_9" function="internal">
        <lane id=":TFL_6_9_0" index="0" speed="13.89" length="20.80" shape="5004.80,-2489.60 5004.80,-2510.40"/>
        <lane id=":TFL_6_9_1" index="1" speed="13.89" length="20.80" shape="5001.60,-2489.60 5001.60,-2510.40"/>
    </edge>
    <edge id=":TFL_6_11" function="internal">
        <lane id=":TFL_6_11_0" index="0" speed="9.26" length="6.96" shape="5001.60,-2489.60 5000.85,-2494.85 5000.00,-2496.27"/>
    </edge>
    <edge id=":TFL_6_18" function="internal">
        <lane id=":TFL_6_18_0" index="0" speed="9.26" length="12.40" shape="5000.00,-2496.27 4998.60,-2498.60 4994.85,-2500.85 4989.60,-2501.60"/>
    </edge>
    <edge id=":TFL_6_12" function="internal">
        <lane id=":TFL_6_12_0" index="0" speed="6.51" length="9.03" shape="4989.60,-2495.20 4992.05,-2494.85 4993.80,-2493.80 4994.85,-2492.05 4995.20,-2489.60"/>
    </edge>
    <edge id=":TFL_6_13" function="internal">
        <lane id=":TFL_6_13_0" index="0" speed="13.89" length="20.80" shape="4989.60,-2495.20 5010.40,-2495.20"/>
        <lane id=":TFL_6_13_1" index="1" speed="13.89" length="20.80" shape="4989.60,-2498.40 5010.40,-2498.40"/>
    </edge>
    <edge id=":TFL_6_15" function="internal">
        <lane id=":TFL_6_15_0" index="0" speed="9.26" length="6.96" shape="4989.60,-2498.40 4994.85,-2499.15 4996.27,-2500.00"/>
    </edge>
    <edge id=":TFL_6_19" function="internal">
        <lane id=":TFL_6_19_0" index="0" speed="9.26" length="12.40" shape="4996.27,-2500.00 4998.60,-2501.40 5000.85,-2505.15 5001.60,-2510.40"/>
    </edge>
    <edge id=":TFL_7_0" function="internal">
        <lane id=":TFL_7_0_0" index="0" speed="6.51" length="9.03" shape="-4.80,-5010.40 -5.15,-5007.95 -6.20,-5006.20 -7.95,-5005.15 -10.40,-5004.80"/>
    </edge>
    <edge id=":TFL_7_1" function="internal">
        <lane id=":TFL_7_1_0" index="0" speed="13.89" length="20.80" shape="-4.80,-5010.40 -4.80,-4989.60"/>
    </edge>
    <edge id=":TFL_7_2" function="internal">
        <lane id=":TFL_7_2_0" index="0" speed="9.26" length="11.78" shape="-1.60,-5010.40 -0.85,-5005.15 1.40,-5001.40 3.20,-5000.32"/>
    </edge>
    <edge id=":TFL_7_12" function="internal">
        <lane id=":TFL_7_12_0" index="0" speed="9.26" length="7.58" shape="3.20,-5000.32 5.15,-4999.15 10.40,-4998.40"/>
    </edge>
    <edge id=":TFL_7_3" function="internal">
        <lane id=":TFL_7_3_0" index="0" speed="6.51" length="9.03" shape="10.40,-5004.80 7.95,-5005.15 6.20,-5006.20 5.15,-5007.95 4.80,-5010.40"/>
    </edge>
    <edge id=":TFL_7_4" function="internal">
        <lane id=":TFL_7_4_0" index="0" speed="13.89" length="20.80" shape="10.40,-5004.80 -10.40,-5004.80"/>
    </edge>
    <edge id=":TFL_7_5" function="internal">
        <lane id=":TFL_7_5_0" index="0" speed="9.26" length="11.78" shape="10.40,-5001.60 5.15,-5000.85 1.40,-4998.60 0.32,-4996.80"/>
    </edge>
    <edge id=":TFL_7_13" function="internal">
        <lane id=":TFL_7_13_0" index="0" speed="9.26" length="7.58" shape="0.32,-4996.80 -0.85,-4994.85 -1.60,-4989.60"/>
    </edge>
    <edge id=":TFL_7_6" function="internal">
        <lane id=":TFL_7_6_0" index="0" speed="6.51" length="9.03" shape="4.80,-4989.60 5.15,-4992.05 6.20,-4993.80 7.95,-4994.85 10.40,-4995.20"/>
    </edge>
    <edge id=":TFL_7_7" function="internal">
        <lane id=":TFL_7_7_0" index="0" speed="13.89" length="20.80" shape="4.80,-4989.60 4.80,-5010.40"/>
    </edge>
    <edge id=":TFL_7_8" function="internal">
        <lane id=":TFL_7_8_0" index="0" speed="9.26" length="11.78" shape="1.60,-4989.60 0.85,-4994.85 -1.40,-4998.60 -3.20,-4999.68"/>
    </edge>
    <edge id=":TFL_7_14" function="internal">
        <lane id=":TFL_7_14_0" index="0" speed="9.26" length="7.58" shape="-3.20,-4999.68 -5.15,-5000.85 -10.40,-5001.60"/>
    </edge>
    <edge id=":TFL_7_9" function="internal">
        <lane id=":TFL_7_9_0" index="0" speed="6.51" length="9.03" shape="-10.40,-4995.20 -7.95,-4994.85 -6.20,-4993.80 -5.15,-4992.05 -4.80,-4989.60"/>
    </edge>
    <edge id=":TFL_7_10" function="internal">
        <lane id=":TFL_7_10_0" index="0" speed="13.89" length="20.80" shape="-10.40,-4995.20 10.40,-4995.20"/>
    </edge>
    <edge id=":TFL_7_11" function="internal">
        <lane id=":TFL_7_11_0" index="0" speed="9.26" length="11.78" shape="-10.40,-4998.40 -5.15,-4999.15 -1.40,-5001.40 -0.32,-5003.20"/>
    </edge>
    <edge id=":TFL_7_15" function="internal">
        <lane id=":TFL_7_15_0" index="0" speed="9.26" length="7.58" shape="-0.32,-5003.20 0.85,-5005.15 1.60,-5010.40"/>
    </edge>
    <edge id=":TFL_8_0" function="internal">
        <lane id=":TFL_8_0_0" index="0" speed="6.51" length="9.03" shape="2495.20,-5010.40 2494.85,-5007.95 2493.80,-5006.20 2492.05,-5005.15 2489.60,-5004.80"/>
    </edge>
    <edge id=":TFL_8_1" function="internal">
        <lane id=":TFL_8_1_0" index="0" speed="13.89" length="20.80" shape="2495.20,-5010.40 2495.20,-4989.60"/>
    </edge>
    <edge id=":TFL_8_2" function="internal">
        <lane id=":TFL_8_2_0" index="0" speed="9.26" length="11.78" shape="2498.40,-5010.40 2499.15,-5005.15 2501.40,-5001.40 2503.20,-5000.32"/>
    </edge>
    <edge id=":TFL_8_12" function="internal">
        <lane id=":TFL_8_12_0" index="0" speed="9.26" length="7.58" shape="2503.20,-5000.32 2505.15,-4999.15 2510.40,-4998.40"/>
    </edge>
    <edge id=":TFL_8_3" function="internal">
        <lane id=":TFL_8_3_0" index="0" speed="6.51" length="9.03" shape="2510.40,-5004.80 2507.95,-5005.15 2506.20,-5006.20 2505.15,-5007.95 2504.80,-5010.40"/>
    </edge>
    <edge id=":TFL_8_4" function="internal">
        <lane id=":TFL_8_4_0" index="0" speed="13.89" length="20.80" shape="2510.40,-5004.80 2489.60,-5004.80"/>
    </edge>
    <edge id=":TFL_8_5" function="internal">
        <lane id=":TFL_8_5_0" index="0" speed="9.26" length="11.78" shape="2510.40,-5001.60 2505.15,-5000.85 2501.40,-4998.60 2500.32,-4996.80"/>
    </edge>
    <edge id=":TFL_8_13" function="internal">
        <lane id=":TFL_8_13_0" index="0" speed="9.26" length="7.58" shape="2500.32,-4996.80 2499.15,-4994.85 2498.40,-4989.60"/>
    </edge>
    <edge id=":TFL_8_6" function="internal">
        <lane id=":TFL_8_6_0" index="0" speed="6.51" length="9.03" shape="2504.80,-4989.60 2505.15,-4992.05 2506.20,-4993.80 2507.95,-4994.85 2510.40,-4995.20"/>
    </edge>
    <edge id=":TFL_8_7" function="internal">
        <lane id=":TFL_8_7_0" index="0" speed="13.89" length="20.80" shape="2504.80,-4989.60 2504.80,-5010.40"/>
    </edge>
    <edge id=":TFL_8_8" function="internal">
        <lane id=":TFL_8_8_0" index="0" speed="9.26" length="11.78" shape="2501.60,-4989.60 2500.85,-4994.85 2498.60,-4998.60 2496.80,-4999.68"/>
    </edge>
    <edge id=":TFL_8_14" function="internal">
        <lane id=":TFL_8_14_0" index="0" speed="9.26" length="7.58" shape="2496.80,-4999.68 2494.85,-5000.85 2489.60,-5001.60"/>
    </edge>
    <edge id=":TFL_8_9" function="internal">
        <lane id=":TFL_8_9_0" index="0" speed="6.51" length="9.03" shape="2489.60,-4995.20 2492.05,-4994.85 2493.80,-4993.80 2494.85,-4992.05 2495.20,-4989.60"/>
    </edge>
    <edge id=":TFL_8_10" function="internal">
        <lane id=":TFL_8_10_0" index="0" speed="13.89" length="20.80" shape="2489.60,-4995.20 2510.40,-4995.20"/>
    </edge>
    <edge id=":TFL_8_11" function="internal">
        <lane id=":TFL_8_11_0" index="0" speed="9.26" length="11.78" shape="2489.60,-4998.40 2494.85,-4999.15 2498.60,-5001.40 2499.68,-5003.20"/>
    </edge>
    <edge id=":TFL_8_15" function="internal">
        <lane id=":TFL_8_15_0" index="0" speed="9.26" length="7.58" shape="2499.68,-5003.20 2500.85,-5005.15 2501.60,-5010.40"/>
    </edge>
    <edge id=":TFL_9_0" function="internal">
        <lane id=":TFL_9_0_0" index="0" speed="6.51" length="9.03" shape="4995.20,-5010.40 4994.85,-5007.95 4993.80,-5006.20 4992.05,-5005.15 4989.60,-5004.80"/>
    </edge>
    <edge id=":TFL_9_1" function="internal">
        <lane id=":TFL_9_1_0" index="0" speed="13.89" length="20.80" shape="4995.20,-5010.40 4995.20,-4989.60"/>
    </edge>
    <edge id=":TFL_9_2" function="internal">
        <lane id=":TFL_9_2_0" index="0" speed="9.26" length="11.78" shape="4998.40,-5010.40 4999.15,-5005.15 5001.40,-5001.40 5003.20,-5000.32"/>
    </edge>
    <edge id=":TFL_9_12" function="internal">
        <lane id=":TFL_9_12_0" index="0" speed="9.26" length="7.58" shape="5003.20,-5000.32 5005.15,-4999.15 5010.40,-4998.40"/>
    </edge>
    <edge id=":TFL_9_3" function="internal">
        <lane id=":TFL_9_3_0" index="0" speed="6.51" length="9.03" shape="5010.40,-5004.80 5007.95,-5005.15 5006.20,-5006.20 5005.15,-5007.95 5004.80,-5010.40"/>
    </edge>
    <edge id=":TFL_9_4" function="internal">
        <lane id=":TFL_9_4_0" index="0" speed="13.89" length="20.80" shape="5010.40,-5004.80 4989.60,-5004.80"/>
    </edge>
    <edge id=":TFL_9_5" function="internal">
        <lane id=":TFL_9_5_0" index="0" speed="9.26" length="11.78" shape="5010.40,-5001.60 5005.15,-5000.85 5001.40,-4998.60 5000.32,-4996.80"/>
    </edge>
    <edge id=":TFL_9_13" function="internal">
        <lane id=":TFL_9_13_0" index="0" speed="9.26" length="7.58" shape="5000.32,-4996.80 4999.15,-4994.85 4998.40,-4989.60"/>
    </edge>
    <edge id=":TFL_9_6" function="internal">
        <lane id=":TFL_9_6_0" index="0" speed="6.51" length="9.03" shape="5004.80,-4989.60 5005.15,-4992.05 5006.20,-4993.80 5007.95,-4994.85 5010.40,-4995.20"/>
    </edge>
    <edge id=":TFL_9_7" function="internal">
        <lane id=":TFL_9_7_0" index="0" speed="13.89" length="20.80" shape="5004.80,-4989.60 5004.80,-5010.40"/>
    </edge>
    <edge id=":TFL_9_8" function="internal">
        <lane id=":TFL_9_8_0" index="0" speed="9.26" length="11.78" shape="5001.60,-4989.60 5000.85,-4994.85 4998.60,-4998.60 4996.80,-4999.68"/>
    </edge>
    <edge id=":TFL_9_14" function="internal">
        <lane id=":TFL_9_14_0" index="0" speed="9.26" length="7.58" shape="4996.80,-4999.68 4994.85,-5000.85 4989.60,-5001.60"/>
    </edge>
    <edge id=":TFL_9_9" function="internal">
        <lane id=":TFL_9_9_0" index="0" speed="6.51" length="9.03" shape="4989.60,-4995.20 4992.05,-4994.85 4993.80,-4993.80 4994.85,-4992.05 4995.20,-4989.60"/>
    </edge>
    <edge id=":TFL_9_10" function="internal">
        <lane id=":TFL_9_10_0" index="0" speed="13.89" length="20.80" shape="4989.60,-4995.20 5010.40,-4995.20"/>
    </edge>
    <edge id=":TFL_9_11" function="internal">
        <lane id=":TFL_9_11_0" index="0" speed="9.26" length="11.78" shape="4989.60,-4998.40 4994.85,-4999.15 4998.60,-5001.40 4999.68,-5003.20"/>
    </edge>
    <edge id=":TFL_9_15" function="internal">
        <lane id=":TFL_9_15_0" index="0" speed="9.26" length="7.58" shape="4999.68,-5003.20 5000.85,-5005.15 5001.60,-5010.40"/>
    </edge>
    <edge id=":U_Turn_EM_0" function="internal">
        <lane id=":U_Turn_EM_0_0" index="0" speed="13.89" length="0.10" shape="7400.00,-2504.80 7400.00,-2504.80"/>
        <lane id=":U_Turn_EM_0_1" index="1" speed="13.89" length="0.10" shape="7400.00,-2501.60 7400.00,-2501.60"/>
    </edge>
    <edge id=":U_Turn_EM_2" function="internal">
        <lane id=":U_Turn_EM_2_0" index="0" speed="13.89" length="0.10" shape="7400.00,-2495.20 7400.00,-2495.20"/>
        <lane id=":U_Turn_EM_2_1" index="1" speed="13.89" length="0.10" shape="7400.00,-2498.40 7400.00,-2498.40"/>
    </edge>
    <edge id=":U_Turn_EM_4" function="internal">