<?xml version="1.0" encoding="UTF-8"?>

<!-- generated on 03/29/21 13:23:58 by Eclipse SUMO duarouter Version 1.6.0
<configuration xmlns:xsi="http://www.w3.org/2001/XMLSchema-instance" xsi:noNamespaceSchemaLocation="http://sumo.dlr.de/xsd/duarouterConfiguration.xsd">

    <input>
        <net-file value="./4-way/4-way.net.xml"/>
        <additional-files value="vTypeDistributions.add.xml"/>
        <route-files value="trips.trips.xml"/>
    </input>

    <output>
        <output-file value="trips.trips.xml.tmp"/>
        <write-trips value="true"/>
    </output>

    <time>
        <begin value="0"/>
        <end value="3000.0"/>
    </time>

    <report>
        <no-warnings value="true"/>
        <ignore-errors value="true"/>
        <no-step-log value="true"/>
    </report>

</configuration>
-->

<routes xmlns:xsi="http://www.w3.org/2001/XMLSchema-instance" xsi:noNamespaceSchemaLocation="http://sumo.dlr.de/xsd/routes_file.xsd">
    <vType id="vehDist4" length="4.70" minGap="1.30" maxSpeed="15.27" vClass="passenger" carFollowModel="Krauss" accel="1.737" sigma="0.574"/>
    <trip id="0" type="vehDist4" depart="0.00" departLane="best" departPos="random" departSpeed="random" from="gneE11" to="-gneE9"/>
    <vType id="vehDist3" length="4.70" minGap="1.30" maxSpeed="33.08" vClass="passenger" carFollowModel="Krauss" accel="2.593" sigma="0.407"/>
    <trip id="1" type="vehDist3" depart="1.20" departLane="best" departPos="random" departSpeed="random" from="gneE11" to="-gneE13"/>
    <vType id="vehDist0" length="4.70" minGap="1.30" maxSpeed="31.50" vClass="passenger" carFollowModel="Krauss" accel="1.801" sigma="0.549"/>
    <trip id="2" type="vehDist0" depart="2.40" departLane="best" departPos="random" departSpeed="random" from="gneE7" to="-gneE13"/>
    <vType id="vehDist2" length="4.70" minGap="1.30" maxSpeed="19.82" vClass="passenger" carFollowModel="Krauss" accel="2.695" sigma="0.266"/>
    <trip id="3" type="vehDist2" depart="3.60" departLane="best" departPos="random" departSpeed="random" from="gneE7" to="-gneE9"/>
    <trip id="4" type="vehDist2" depart="4.80" departLane="best" departPos="random" departSpeed="random" from="gneE13" to="-gneE9"/>
    <trip id="5" type="vehDist0" depart="6.00" departLane="best" departPos="random" departSpeed="random" from="gneE13" to="-gneE9"/>
    <vType id="vehDist1" length="4.70" minGap="1.30" maxSpeed="26.40" vClass="passenger" carFollowModel="Krauss" accel="1.610" sigma="0.472"/>
    <trip id="7" type="vehDist1" depart="8.40" departLane="best" departPos="random" departSpeed="random" from="gneE11" to="-gneE13"/>
    <trip id="8" type="vehDist2" depart="9.60" departLane="best" departPos="random" departSpeed="random" from="gneE13" to="-gneE7"/>
    <trip id="9" type="vehDist3" depart="10.80" departLane="best" departPos="random" departSpeed="random" from="gneE9" to="-gneE11"/>
    <trip id="10" type="vehDist0" depart="12.00" departLane="best" departPos="random" departSpeed="random" from="gneE7" to="-gneE13"/>
    <trip id="11" type="vehDist3" depart="13.20" departLane="best" departPos="random" departSpeed="random" from="gneE7" to="-gneE11"/>
    <trip id="12" type="vehDist2" depart="14.40" departLane="best" departPos="random" departSpeed="random" from="gneE9" to="-gneE7"/>
    <trip id="13" type="vehDist2" depart="15.60" departLane="best" departPos="random" departSpeed="random" from="gneE11" to="-gneE7"/>
    <trip id="14" type="vehDist2" depart="16.80" departLane="best" departPos="random" departSpeed="random" from="gneE11" to="-gneE9"/>
    <trip id="15" type="vehDist1" depart="18.00" departLane="best" departPos="random" departSpeed="random" from="gneE13" to="-gneE11"/>
    <trip id="16" type="vehDist0" depart="19.20" departLane="best" departPos="random" departSpeed="random" from="gneE11" to="-gneE9"/>
    <trip id="19" type="vehDist3" depart="22.80" departLane="best" departPos="random" departSpeed="random" from="gneE9" to="-gneE7"/>
    <trip id="20" type="vehDist0" depart="24.00" departLane="best" departPos="random" departSpeed="random" from="gneE9" to="-gneE11"/>
    <trip id="21" type="vehDist2" depart="25.20" departLane="best" departPos="random" departSpeed="random" from="gneE7" to="-gneE11"/>
    <trip id="23" type="vehDist3" depart="27.60" departLane="best" departPos="random" departSpeed="random" from="gneE11" to="-gneE9"/>
    <trip id="24" type="vehDist4" depart="28.80" departLane="best" departPos="random" departSpeed="random" from="gneE11" to="-gneE9"/>
    <trip id="25" type="vehDist4" depart="30.00" departLane="best" departPos="random" departSpeed="random" from="gneE9" to="-gneE7"/>
    <trip id="26" type="vehDist4" depart="31.20" departLane="best" departPos="random" departSpeed="random" from="gneE7" to="-gneE11"/>
    <trip id="27" type="vehDist1" depart="32.40" departLane="best" departPos="random" departSpeed="random" from="gneE11" to="-gneE13"/>
    <trip id="29" type="vehDist1" depart="34.80" departLane="best" departPos="random" departSpeed="random" from="gneE13" to="-gneE9"/>
    <trip id="31" type="vehDist1" depart="37.20" departLane="best" departPos="random" departSpeed="random" from="gneE11" to="-gneE13"/>
    <trip id="32" type="vehDist3" depart="38.40" departLane="best" departPos="random" departSpeed="random" from="gneE13" to="-gneE11"/>
    <trip id="33" type="vehDist0" depart="39.60" departLane="best" departPos="random" departSpeed="random" from="gneE9" to="-gneE7"/>
    <trip id="34" type="vehDist4" depart="40.80" departLane="best" departPos="random" departSpeed="random" from="gneE7" to="-gneE13"/>
    <trip id="36" type="vehDist3" depart="43.20" departLane="best" departPos="random" departSpeed="random" from="gneE7" to="-gneE9"/>
    <trip id="37" type="vehDist1" depart="44.40" departLane="best" departPos="random" departSpeed="random" from="gneE9" to="-gneE7"/>
    <trip id="39" type="vehDist0" depart="46.80" departLane="best" departPos="random" departSpeed="random" from="gneE11" to="-gneE13"/>
    <trip id="42" type="vehDist1" depart="50.40" departLane="best" departPos="random" departSpeed="random" from="gneE9" to="-gneE13"/>
    <trip id="43" type="vehDist1" depart="51.60" departLane="best" departPos="random" departSpeed="random" from="gneE7" to="-gneE13"/>
    <trip id="44" type="vehDist0" depart="52.80" departLane="best" departPos="random" departSpeed="random" from="gneE7" to="-gneE11"/>
    <trip id="46" type="vehDist1" depart="55.20" departLane="best" departPos="random" departSpeed="random" from="gneE7" to="-gneE9"/>
    <trip id="47" type="vehDist4" depart="56.40" departLane="best" departPos="random" departSpeed="random" from="gneE9" to="-gneE11"/>
    <trip id="48" type="vehDist0" depart="57.60" departLane="best" departPos="random" departSpeed="random" from="gneE7" to="-gneE9"/>
    <trip id="49" type="vehDist3" depart="58.80" departLane="best" departPos="random" departSpeed="random" from="gneE9" to="-gneE7"/>
    <trip id="50" type="vehDist3" depart="60.00" departLane="best" departPos="random" departSpeed="random" from="gneE9" to="-gneE7"/>
    <trip id="51" type="vehDist2" depart="61.20" departLane="best" departPos="random" departSpeed="random" from="gneE7" to="-gneE13"/>
    <trip id="52" type="vehDist3" depart="62.40" departLane="best" departPos="random" departSpeed="random" from="gneE11" to="-gneE13"/>
    <trip id="53" type="vehDist4" depart="63.60" departLane="best" departPos="random" departSpeed="random" from="gneE7" to="-gneE11"/>
    <trip id="54" type="vehDist4" depart="64.80" departLane="best" departPos="random" departSpeed="random" from="gneE7" to="-gneE11"/>
    <trip id="55" type="vehDist1" depart="66.00" departLane="best" departPos="random" departSpeed="random" from="gneE9" to="-gneE7"/>
    <trip id="59" type="vehDist4" depart="70.80" departLane="best" departPos="random" departSpeed="random" from="gneE13" to="-gneE7"/>
    <trip id="60" type="vehDist0" depart="72.00" departLane="best" departPos="random" departSpeed="random" from="gneE13" to="-gneE9"/>
    <trip id="61" type="vehDist3" depart="73.20" departLane="best" departPos="random" departSpeed="random" from="gneE13" to="-gneE11"/>
    <trip id="62" type="vehDist0" depart="74.40" departLane="best" departPos="random" departSpeed="random" from="gneE11" to="-gneE13"/>
    <trip id="63" type="vehDist0" depart="75.60" departLane="best" departPos="random" departSpeed="random" from="gneE7" to="-gneE9"/>
    <trip id="65" type="vehDist2" depart="78.00" departLane="best" departPos="random" departSpeed="random" from="gneE13" to="-gneE11"/>
    <trip id="67" type="vehDist0" depart="80.40" departLane="best" departPos="random" departSpeed="random" from="gneE13" to="-gneE11"/>
    <trip id="68" type="vehDist0" depart="81.60" departLane="best" departPos="random" departSpeed="random" from="gneE11" to="-gneE9"/>
    <trip id="70" type="vehDist1" depart="84.00" departLane="best" departPos="random" departSpeed="random" from="gneE11" to="-gneE7"/>
    <trip id="71" type="vehDist1" depart="85.20" departLane="best" departPos="random" departSpeed="random" from="gneE11" to="-gneE7"/>
    <trip id="72" type="vehDist0" depart="86.40" departLane="best" departPos="random" departSpeed="random" from="gneE13" to="-gneE9"/>
    <trip id="73" type="vehDist2" depart="87.60" departLane="best" departPos="random" departSpeed="random" from="gneE9" to="-gneE7"/>
    <trip id="74" type="vehDist1" depart="88.80" departLane="best" departPos="random" departSpeed="random" from="gneE9" to="-gneE11"/>
    <trip id="75" type="vehDist0" depart="90.00" departLane="best" departPos="random" departSpeed="random" from="gneE9" to="-gneE13"/>
    <trip id="76" type="vehDist0" depart="91.20" departLane="best" departPos="random" departSpeed="random" from="gneE13" to="-gneE9"/>
    <trip id="77" type="vehDist0" depart="92.40" departLane="best" departPos="random" departSpeed="random" from="gneE9" to="-gneE7"/>
    <trip id="78" type="vehDist3" depart="93.60" departLane="best" departPos="random" departSpeed="random" from="gneE9" to="-gneE11"/>
    <trip id="80" type="vehDist1" depart="96.00" departLane="best" departPos="random" departSpeed="random" from="gneE13" to="-gneE11"/>
    <trip id="82" type="vehDist3" depart="98.40" departLane="best" departPos="random" departSpeed="random" from="gneE13" to="-gneE11"/>
    <trip id="83" type="vehDist2" depart="99.60" departLane="best" departPos="random" departSpeed="random" from="gneE11" to="-gneE9"/>
    <trip id="84" type="vehDist3" depart="100.80" departLane="best" departPos="random" departSpeed="random" from="gneE7" to="-gneE11"/>
    <trip id="85" type="vehDist1" depart="102.00" departLane="best" departPos="random" departSpeed="random" from="gneE9" to="-gneE13"/>
    <trip id="87" type="vehDist4" depart="104.40" departLane="best" departPos="random" departSpeed="random" from="gneE11" to="-gneE9"/>
    <trip id="88" type="vehDist2" depart="105.60" departLane="best" departPos="random" departSpeed="random" from="gneE7" to="-gneE13"/>
    <trip id="89" type="vehDist2" depart="106.80" departLane="best" departPos="random" departSpeed="random" from="gneE9" to="-gneE7"/>
    <trip id="90" type="vehDist1" depart="108.00" departLane="best" departPos="random" departSpeed="random" from="gneE11" to="-gneE7"/>
    <trip id="91" type="vehDist4" depart="109.20" departLane="best" departPos="random" departSpeed="random" from="gneE11" to="-gneE13"/>
    <trip id="92" type="vehDist0" depart="110.40" departLane="best" departPos="random" departSpeed="random" from="gneE13" to="-gneE7"/>
    <trip id="95" type="vehDist4" depart="114.00" departLane="best" departPos="random" departSpeed="random" from="gneE7" to="-gneE9"/>
    <trip id="96" type="vehDist3" depart="115.20" departLane="best" departPos="random" departSpeed="random" from="gneE13" to="-gneE9"/>
    <trip id="97" type="vehDist4" depart="116.40" departLane="best" departPos="random" departSpeed="random" from="gneE9" to="-gneE13"/>
    <trip id="98" type="vehDist2" depart="117.60" departLane="best" departPos="random" departSpeed="random" from="gneE7" to="-gneE9"/>
    <trip id="99" type="vehDist2" depart="118.80" departLane="best" departPos="random" departSpeed="random" from="gneE13" to="-gneE11"/>
    <trip id="103" type="vehDist2" depart="123.60" departLane="best" departPos="random" departSpeed="random" from="gneE7" to="-gneE9"/>
    <trip id="104" type="vehDist4" depart="124.80" departLane="best" departPos="random" departSpeed="random" from="gneE9" to="-gneE7"/>
    <trip id="107" type="vehDist1" depart="128.40" departLane="best" departPos="random" departSpeed="random" from="gneE7" to="-gneE13"/>
    <trip id="108" type="vehDist3" depart="129.60" departLane="best" departPos="random" departSpeed="random" from="gneE13" to="-gneE9"/>
    <trip id="109" type="vehDist0" depart="130.80" departLane="best" departPos="random" departSpeed="random" from="gneE9" to="-gneE7"/>
    <trip id="110" type="vehDist2" depart="132.00" departLane="best" departPos="random" departSpeed="random" from="gneE11" to="-gneE9"/>
    <trip id="111" type="vehDist3" depart="133.20" departLane="best" departPos="random" departSpeed="random" from="gneE13" to="-gneE9"/>
    <trip id="112" type="vehDist3" depart="134.40" departLane="best" departPos="random" departSpeed="random" from="gneE7" to="-gneE13"/>
    <trip id="113" type="vehDist1" depart="135.60" departLane="best" departPos="random" departSpeed="random" from="gneE11" to="-gneE9"/>
    <trip id="114" type="vehDist3" depart="136.80" departLane="best" departPos="random" departSpeed="random" from="gneE13" to="-gneE9"/>
    <trip id="115" type="vehDist0" depart="138.00" departLane="best" departPos="random" departSpeed="random" from="gneE7" to="-gneE13"/>
    <trip id="116" type="vehDist3" depart="139.20" departLane="best" departPos="random" departSpeed="random" from="gneE9" to="-gneE13"/>
    <trip id="117" type="vehDist0" depart="140.40" departLane="best" departPos="random" departSpeed="random" from="gneE9" to="-gneE11"/>
    <trip id="118" type="vehDist4" depart="141.60" departLane="best" departPos="random" departSpeed="random" from="gneE7" to="-gneE11"/>
    <trip id="119" type="vehDist1" depart="142.80" departLane="best" departPos="random" departSpeed="random" from="gneE13" to="-gneE9"/>
    <trip id="122" type="vehDist1" depart="146.40" departLane="best" departPos="random" departSpeed="random" from="gneE7" to="-gneE13"/>
    <trip id="123" type="vehDist3" depart="147.60" departLane="best" departPos="random" departSpeed="random" from="gneE11" to="-gneE7"/>
    <trip id="124" type="vehDist4" depart="148.80" departLane="best" departPos="random" departSpeed="random" from="gneE11" to="-gneE9"/>
    <trip id="125" type="vehDist4" depart="150.00" departLane="best" departPos="random" departSpeed="random" from="gneE11" to="-gneE9"/>
    <trip id="128" type="vehDist1" depart="153.60" departLane="best" departPos="random" departSpeed="random" from="gneE11" to="-gneE9"/>
    <trip id="131" type="vehDist2" depart="157.20" departLane="best" departPos="random" departSpeed="random" from="gneE9" to="-gneE13"/>
    <trip id="132" type="vehDist1" depart="158.40" departLane="best" departPos="random" departSpeed="random" from="gneE9" to="-gneE13"/>
    <trip id="134" type="vehDist3" depart="160.80" departLane="best" departPos="random" departSpeed="random" from="gneE13" to="-gneE11"/>
    <trip id="135" type="vehDist2" depart="162.00" departLane="best" departPos="random" departSpeed="random" from="gneE11" to="-gneE7"/>
    <trip id="137" type="vehDist0" depart="164.40" departLane="best" departPos="random" departSpeed="random" from="gneE9" to="-gneE11"/>
    <trip id="138" type="vehDist4" depart="165.60" departLane="best" departPos="random" departSpeed="random" from="gneE7" to="-gneE11"/>
    <trip id="139" type="vehDist3" depart="166.80" departLane="best" departPos="random" departSpeed="random" from="gneE7" to="-gneE11"/>
    <trip id="140" type="vehDist4" depart="168.00" departLane="best" departPos="random" departSpeed="random" from="gneE11" to="-gneE13"/>
    <trip id="142" type="vehDist2" depart="170.40" departLane="best" departPos="random" departSpeed="random" from="gneE11" to="-gneE9"/>
    <trip id="143" type="vehDist0" depart="171.60" departLane="best" departPos="random" departSpeed="random" from="gneE13" to="-gneE11"/>
    <trip id="145" type="vehDist4" depart="174.00" departLane="best" departPos="random" departSpeed="random" from="gneE13" to="-gneE7"/>
    <trip id="146" type="vehDist2" depart="175.20" departLane="best" departPos="random" departSpeed="random" from="gneE13" to="-gneE9"/>
    <trip id="147" type="vehDist4" depart="176.40" departLane="best" departPos="random" departSpeed="random" from="gneE13" to="-gneE7"/>
    <trip id="149" type="vehDist1" depart="178.80" departLane="best" departPos="random" departSpeed="random" from="gneE7" to="-gneE13"/>
    <trip id="150" type="vehDist3" depart="180.00" departLane="best" departPos="random" departSpeed="random" from="gneE9" to="-gneE13"/>
    <trip id="151" type="vehDist2" depart="181.20" departLane="best" departPos="random" departSpeed="random" from="gneE13" to="-gneE11"/>
    <trip id="153" type="vehDist0" depart="183.60" departLane="best" departPos="random" departSpeed="random" from="gneE7" to="-gneE11"/>
    <trip id="154" type="vehDist3" depart="184.80" departLane="best" departPos="random" departSpeed="random" from="gneE11" to="-gneE7"/>
    <trip id="155" type="vehDist4" depart="186.00" departLane="best" departPos="random" departSpeed="random" from="gneE13" to="-gneE7"/>
    <trip id="156" type="vehDist0" depart="187.20" departLane="best" departPos="random" departSpeed="random" from="gneE7" to="-gneE13"/>
    <trip id="157" type="vehDist2" depart="188.40" departLane="best" departPos="random" departSpeed="random" from="gneE9" to="-gneE7"/>
    <trip id="158" type="vehDist4" depart="189.60" departLane="best" departPos="random" departSpeed="random" from="gneE11" to="-gneE9"/>
    <trip id="159" type="vehDist2" depart="190.80" departLane="best" departPos="random" departSpeed="random" from="gneE11" to="-gneE13"/>
    <trip id="160" type="vehDist0" depart="192.00" departLane="best" departPos="random" departSpeed="random" from="gneE11" to="-gneE9"/>
    <trip id="162" type="vehDist4" depart="194.40" departLane="best" departPos="random" departSpeed="random" from="gneE9" to="-gneE11"/>
    <trip id="163" type="vehDist1" depart="195.60" departLane="best" departPos="random" departSpeed="random" from="gneE11" to="-gneE7"/>
    <trip id="164" type="vehDist4" depart="196.80" departLane="best" departPos="random" departSpeed="random" from="gneE11" to="-gneE13"/>
    <trip id="165" type="vehDist2" depart="198.00" departLane="best" departPos="random" departSpeed="random" from="gneE13" to="-gneE11"/>
    <trip id="166" type="vehDist4" depart="199.20" departLane="best" departPos="random" departSpeed="random" from="gneE13" to="-gneE7"/>
    <trip id="167" type="vehDist3" depart="200.40" departLane="best" departPos="random" departSpeed="random" from="gneE13" to="-gneE11"/>
    <trip id="169" type="vehDist4" depart="202.80" departLane="best" departPos="random" departSpeed="random" from="gneE9" to="-gneE7"/>
    <trip id="170" type="vehDist1" depart="204.00" departLane="best" departPos="random" departSpeed="random" from="gneE7" to="-gneE11"/>
    <trip id="171" type="vehDist1" depart="205.20" departLane="best" departPos="random" departSpeed="random" from="gneE13" to="-gneE11"/>
    <trip id="172" type="vehDist0" depart="206.40" departLane="best" departPos="random" departSpeed="random" from="gneE11" to="-gneE13"/>
    <trip id="173" type="vehDist2" depart="207.60" departLane="best" departPos="random" departSpeed="random" from="gneE11" to="-gneE7"/>
    <trip id="174" type="vehDist1" depart="208.80" departLane="best" departPos="random" departSpeed="random" from="gneE11" to="-gneE13"/>
    <trip id="177" type="vehDist1" depart="212.40" departLane="best" departPos="random" departSpeed="random" from="gneE11" to="-gneE9"/>
    <trip id="178" type="vehDist4" depart="213.60" departLane="best" departPos="random" departSpeed="random" from="gneE11" to="-gneE13"/>
    <trip id="179" type="vehDist0" depart="214.80" departLane="best" departPos="random" departSpeed="random" from="gneE7" to="-gneE9"/>
    <trip id="180" type="vehDist2" depart="216.00" departLane="best" departPos="random" departSpeed="random" from="gneE11" to="-gneE9"/>
    <trip id="181" type="vehDist0" depart="217.20" departLane="best" departPos="random" departSpeed="random" from="gneE13" to="-gneE9"/>
    <trip id="183" type="vehDist0" depart="219.60" departLane="best" departPos="random" departSpeed="random" from="gneE9" to="-gneE11"/>
    <trip id="184" type="vehDist0" depart="220.80" departLane="best" departPos="random" departSpeed="random" from="gneE9" to="-gneE13"/>
    <trip id="185" type="vehDist1" depart="222.00" departLane="best" departPos="random" departSpeed="random" from="gneE13" to="-gneE11"/>
    <trip id="187" type="vehDist0" depart="224.40" departLane="best" departPos="random" departSpeed="random" from="gneE11" to="-gneE9"/>
    <trip id="188" type="vehDist4" depart="225.60" departLane="best" departPos="random" departSpeed="random" from="gneE13" to="-gneE11"/>
    <trip id="191" type="vehDist4" depart="229.20" departLane="best" departPos="random" departSpeed="random" from="gneE13" to="-gneE7"/>
    <trip id="192" type="vehDist2" depart="230.40" departLane="best" departPos="random" departSpeed="random" from="gneE11" to="-gneE7"/>
    <trip id="193" type="vehDist0" depart="231.60" departLane="best" departPos="random" departSpeed="random" from="gneE7" to="-gneE13"/>
    <trip id="195" type="vehDist4" depart="234.00" departLane="best" departPos="random" departSpeed="random" from="gneE7" to="-gneE9"/>
    <trip id="197" type="vehDist4" depart="236.40" departLane="best" departPos="random" departSpeed="random" from="gneE13" to="-gneE7"/>
    <trip id="198" type="vehDist2" depart="237.60" departLane="best" departPos="random" departSpeed="random" from="gneE9" to="-gneE11"/>
    <trip id="200" type="vehDist2" depart="240.00" departLane="best" departPos="random" departSpeed="random" from="gneE9" to="-gneE13"/>
    <trip id="202" type="vehDist2" depart="242.40" departLane="best" departPos="random" departSpeed="random" from="gneE9" to="-gneE7"/>
    <trip id="203" type="vehDist0" depart="243.60" departLane="best" departPos="random" departSpeed="random" from="gneE7" to="-gneE9"/>
    <trip id="204" type="vehDist3" depart="244.80" departLane="best" departPos="random" departSpeed="random" from="gneE7" to="-gneE13"/>
    <trip id="206" type="vehDist3" depart="247.20" departLane="best" departPos="random" departSpeed="random" from="gneE13" to="-gneE11"/>
    <trip id="208" type="vehDist2" depart="249.60" departLane="best" departPos="random" departSpeed="random" from="gneE7" to="-gneE9"/>
    <trip id="211" type="vehDist0" depart="253.20" departLane="best" departPos="random" departSpeed="random" from="gneE13" to="-gneE11"/>
    <trip id="212" type="vehDist2" depart="254.40" departLane="best" departPos="random" departSpeed="random" from="gneE11" to="-gneE13"/>
    <trip id="213" type="vehDist3" depart="255.60" departLane="best" departPos="random" departSpeed="random" from="gneE7" to="-gneE11"/>
    <trip id="215" type="vehDist3" depart="258.00" departLane="best" departPos="random" departSpeed="random" from="gneE7" to="-gneE11"/>
    <trip id="216" type="vehDist0" depart="259.20" departLane="best" departPos="random" departSpeed="random" from="gneE11" to="-gneE13"/>
    <trip id="217" type="vehDist4" depart="260.40" departLane="best" departPos="random" departSpeed="random" from="gneE11" to="-gneE13"/>
    <trip id="218" type="vehDist1" depart="261.60" departLane="best" departPos="random" departSpeed="random" from="gneE11" to="-gneE7"/>
    <trip id="219" type="vehDist0" depart="262.80" departLane="best" departPos="random" departSpeed="random" from="gneE9" to="-gneE7"/>
    <trip id="220" type="vehDist2" depart="264.00" departLane="best" departPos="random" departSpeed="random" from="gneE9" to="-gneE13"/>
    <trip id="221" type="vehDist0" depart="265.20" departLane="best" departPos="random" departSpeed="random" from="gneE11" to="-gneE13"/>
    <trip id="222" type="vehDist2" depart="266.40" departLane="best" departPos="random" departSpeed="random" from="gneE9" to="-gneE11"/>
    <trip id="224" type="vehDist2" depart="268.80" departLane="best" departPos="random" departSpeed="random" from="gneE7" to="-gneE9"/>
    <trip id="225" type="vehDist4" depart="270.00" departLane="best" departPos="random" departSpeed="random" from="gneE7" to="-gneE13"/>
    <trip id="226" type="vehDist4" depart="271.20" departLane="best" departPos="random" departSpeed="random" from="gneE11" to="-gneE9"/>
    <trip id="227" type="vehDist1" depart="272.40" departLane="best" departPos="random" departSpeed="random" from="gneE13" to="-gneE9"/>
    <trip id="229" type="vehDist1" depart="274.80" departLane="best" departPos="random" departSpeed="random" from="gneE11" to="-gneE7"/>
    <trip id="230" type="vehDist0" depart="276.00" departLane="best" departPos="random" departSpeed="random" from="gneE11" to="-gneE9"/>
    <trip id="231" type="vehDist1" depart="277.20" departLane="best" departPos="random" departSpeed="random" from="gneE13" to="-gneE11"/>
    <trip id="232" type="vehDist1" depart="278.40" departLane="best" departPos="random" departSpeed="random" from="gneE9" to="-gneE7"/>
    <trip id="233" type="vehDist2" depart="279.60" departLane="best" departPos="random" departSpeed="random" from="gneE9" to="-gneE7"/>
    <trip id="234" type="vehDist1" depart="280.80" departLane="best" departPos="random" departSpeed="random" from="gneE7" to="-gneE11"/>
    <trip id="235" type="vehDist3" depart="282.00" departLane="best" departPos="random" departSpeed="random" from="gneE7" to="-gneE11"/>
    <trip id="237" type="vehDist1" depart="284.40" departLane="best" departPos="random" departSpeed="random" from="gneE7" to="-gneE11"/>
    <trip id="239" type="vehDist1" depart="286.80" departLane="best" departPos="random" departSpeed="random" from="gneE7" to="-gneE9"/>
    <trip id="241" type="vehDist1" depart="289.20" departLane="best" departPos="random" departSpeed="random" from="gneE9" to="-gneE11"/>
    <trip id="243" type="vehDist0" depart="291.60" departLane="best" departPos="random" departSpeed="random" from="gneE13" to="-gneE7"/>
    <trip id="244" type="vehDist0" depart="292.80" departLane="best" departPos="random" departSpeed="random" from="gneE9" to="-gneE7"/>
    <trip id="245" type="vehDist0" depart="294.00" departLane="best" departPos="random" departSpeed="random" from="gneE13" to="-gneE9"/>
    <trip id="246" type="vehDist4" depart="295.20" departLane="best" departPos="random" departSpeed="random" from="gneE9" to="-gneE13"/>
    <trip id="247" type="vehDist1" depart="296.40" departLane="best" departPos="random" departSpeed="random" from="gneE7" to="-gneE13"/>
    <trip id="250" type="vehDist0" depart="300.00" departLane="best" departPos="random" departSpeed="random" from="gneE11" to="-gneE9"/>
    <trip id="252" type="vehDist2" depart="302.40" departLane="best" departPos="random" departSpeed="random" from="gneE7" to="-gneE11"/>
    <trip id="253" type="vehDist2" depart="303.60" departLane="best" departPos="random" departSpeed="random" from="gneE13" to="-gneE7"/>
    <trip id="254" type="vehDist2" depart="304.80" departLane="best" departPos="random" departSpeed="random" from="gneE11" to="-gneE9"/>
    <trip id="255" type="vehDist2" depart="306.00" departLane="best" departPos="random" departSpeed="random" from="gneE9" to="-gneE7"/>
    <trip id="258" type="vehDist2" depart="309.60" departLane="best" departPos="random" departSpeed="random" from="gneE11" to="-gneE7"/>
    <trip id="259" type="vehDist1" depart="310.80" departLane="best" departPos="random" departSpeed="random" from="gneE9" to="-gneE7"/>
    <trip id="260" type="vehDist1" depart="312.00" departLane="best" departPos="random" departSpeed="random" from="gneE13" to="-gneE7"/>
    <trip id="262" type="vehDist1" depart="314.40" departLane="best" departPos="random" departSpeed="random" from="gneE13" to="-gneE11"/>
    <trip id="263" type="vehDist0" depart="315.60" departLane="best" departPos="random" departSpeed="random" from="gneE9" to="-gneE7"/>
    <trip id="264" type="vehDist1" depart="316.80" departLane="best" departPos="random" departSpeed="random" from="gneE13" to="-gneE9"/>
    <trip id="265" type="vehDist1" depart="318.00" departLane="best" departPos="random" departSpeed="random" from="gneE11" to="-gneE13"/>
    <trip id="266" type="vehDist3" depart="319.20" departLane="best" departPos="random" departSpeed="random" from="gneE9" to="-gneE13"/>
    <trip id="267" type="vehDist1" depart="320.40" departLane="best" departPos="random" departSpeed="random" from="gneE9" to="-gneE7"/>
    <trip id="268" type="vehDist4" depart="321.60" departLane="best" departPos="random" departSpeed="random" from="gneE13" to="-gneE11"/>
    <trip id="269" type="vehDist4" depart="322.80" departLane="best" departPos="random" departSpeed="random" from="gneE9" to="-gneE13"/>
    <trip id="272" type="vehDist4" depart="326.40" departLane="best" departPos="random" departSpeed="random" from="gneE13" to="-gneE7"/>
    <trip id="275" type="vehDist1" depart="330.00" departLane="best" departPos="random" departSpeed="random" from="gneE11" to="-gneE9"/>
    <trip id="276" type="vehDist4" depart="331.20" departLane="best" departPos="random" departSpeed="random" from="gneE11" to="-gneE7"/>
    <trip id="277" type="vehDist3" depart="332.40" departLane="best" departPos="random" departSpeed="random" from="gneE7" to="-gneE11"/>
    <trip id="278" type="vehDist3" depart="333.60" departLane="best" departPos="random" departSpeed="random" from="gneE11" to="-gneE9"/>
    <trip id="280" type="vehDist0" depart="336.00" departLane="best" departPos="random" departSpeed="random" from="gneE11" to="-gneE9"/>