<?xml version="1.0" encoding="UTF-8"?>

<!-- generated on 04/04/21 21:33:05 by Eclipse SUMO duarouter Version 1.8.0
<configuration xmlns:xsi="http://www.w3.org/2001/XMLSchema-instance" xsi:noNamespaceSchemaLocation="http://sumo.dlr.de/xsd/duarouterConfiguration.xsd">

    <input>
        <net-file value="./36-way/36-way.net.xml"/>
        <additional-files value="vTypeDistributions.add.xml"/>
        <route-files value="trips.trips.xml"/>
    </input>

    <output>
        <output-file value="trips.trips.xml.tmp"/>
        <write-trips value="true"/>
    </output>

    <time>
        <begin value="0"/>
        <end value="10800.0"/>
    </time>

    <report>
        <no-warnings value="true"/>
        <ignore-errors value="true"/>
        <no-step-log value="true"/>
    </report>

</configuration>
-->

<routes xmlns:xsi="http://www.w3.org/2001/XMLSchema-instance" xsi:noNamespaceSchemaLocation="http://sumo.dlr.de/xsd/routes_file.xsd">
    <vType id="vehDist4" length="4.70" minGap="1.30" maxSpeed="15.27" vClass="passenger" accel="1.737" sigma="0.574"/>
    <trip id="0" type="vehDist4" depart="0.00" departLane="random" departPos="random" departSpeed="random" from="InB_SM_1" to="OutB_WN_1"/>
    <vType id="vehDist3" length="4.70" minGap="1.30" maxSpeed="33.08" vClass="passenger" accel="2.593" sigma="0.407"/>
    <trip id="1" type="vehDist3" depart="1.00" departLane="random" departPos="random" departSpeed="random" from="InB_WS_1" to="OutB_NM_1"/>
    <vType id="vehDist0" length="4.70" minGap="1.30" maxSpeed="31.50" vClass="passenger" accel="1.801" sigma="0.549"/>
    <trip id="2" type="vehDist0" depart="2.00" departLane="random" departPos="random" departSpeed="random" from="InB_EN_1" to="OutB_NW_1"/>
    <vType id="vehDist2" length="4.70" minGap="1.30" maxSpeed="19.82" vClass="passenger" accel="2.695" sigma="0.266"/>
    <trip id="3" type="vehDist2" depart="3.00" departLane="random" departPos="random" departSpeed="random" from="InB_ES_1" to="OutB_NE_1"/>
    <trip id="4" type="vehDist2" depart="4.00" departLane="random" departPos="random" departSpeed="random" from="InB_EM_1" to="OutB_NW_1"/>
    <trip id="5" type="vehDist0" depart="5.00" departLane="random" departPos="random" departSpeed="random" from="InB_SE_1" to="OutB_WN_1"/>
    <trip id="6" type="vehDist3" depart="6.00" departLane="random" departPos="random" departSpeed="random" from="InB_NE_1" to="OutB_WM_1"/>
    <vType id="vehDist1" length="4.70" minGap="1.30" maxSpeed="26.40" vClass="passenger" accel="1.610" sigma="0.472"/>
    <trip id="7" type="vehDist1" depart="7.00" departLane="random" departPos="random" departSpeed="random" from="InB_NM_1" to="OutB_SW_1"/>
    <trip id="8" type="vehDist2" depart="8.00" departLane="random" departPos="random" departSpeed="random" from="InB_WN_1" to="OutB_EM_1"/>
    <trip id="9" type="vehDist3" depart="9.00" departLane="random" departPos="random" departSpeed="random" from="InB_ES_1" to="OutB_SW_1"/>
    <trip id="10" type="vehDist0" depart="10.00" departLane="random" departPos="random" departSpeed="random" from="InB_SW_1" to="OutB_EN_1"/>
    <trip id="11" type="vehDist3" depart="11.00" departLane="random" departPos="random" departSpeed="random" from="InB_ES_1" to="OutB_SW_1"/>
    <trip id="12" type="vehDist2" depart="12.00" departLane="random" departPos="random" departSpeed="random" from="InB_ES_1" to="OutB_SW_1"/>
    <trip id="13" type="vehDist2" depart="13.00" departLane="random" departPos="random" departSpeed="random" from="InB_NW_1" to="OutB_WS_1"/>
    <trip id="14" type="vehDist2" depart="14.00" departLane="random" departPos="random" departSpeed="random" from="InB_SM_1" to="OutB_NW_1"/>
    <trip id="15" type="vehDist1" depart="15.00" departLane="random" departPos="random" departSpeed="random" from="InB_SE_1" to="OutB_NW_1"/>
    <trip id="16" type="vehDist0" depart="16.00" departLane="random" departPos="random" departSpeed="random" from="InB_WS_1" to="OutB_SE_1"/>
    <trip id="17" type="vehDist4" depart="17.00" departLane="random" departPos="random" departSpeed="random" from="InB_SE_1" to="OutB_NM_1"/>
    <trip id="18" type="vehDist1" depart="18.00" departLane="random" departPos="random" departSpeed="random" from="InB_WS_1" to="OutB_NM_1"/>
    <trip id="19" type="vehDist3" depart="19.00" departLane="random" departPos="random" departSpeed="random" from="InB_SW_1" to="OutB_NM_1"/>
    <trip id="20" type="vehDist0" depart="20.00" departLane="random" departPos="random" departSpeed="random" from="InB_WS_1" to="OutB_NW_1"/>
    <trip id="21" type="vehDist2" depart="21.00" departLane="random" departPos="random" departSpeed="random" from="InB_SE_1" to="OutB_EN_1"/>
    <trip id="22" type="vehDist1" depart="22.00" departLane="random" departPos="random" departSpeed="random" from="InB_NM_1" to="OutB_SW_1"/>
    <trip id="23" type="vehDist3" depart="23.00" departLane="random" departPos="random" departSpeed="random" from="InB_EN_1" to="OutB_SW_1"/>
    <trip id="24" type="vehDist4" depart="24.00" departLane="random" departPos="random" departSpeed="random" from="InB_SW_1" to="OutB_NM_1"/>
    <trip id="25" type="vehDist4" depart="25.00" departLane="random" departPos="random" departSpeed="random" from="InB_WM_1" to="OutB_EM_1"/>
    <trip id="26" type="vehDist4" depart="26.00" departLane="random" departPos="random" departSpeed="random" from="InB_NE_1" to="OutB_WM_1"/>
    <trip id="27" type="vehDist1" depart="27.00" departLane="random" departPos="random" departSpeed="random" from="InB_EN_1" to="OutB_WN_1"/>
    <trip id="28" type="vehDist2" depart="28.00" departLane="random" departPos="random" departSpeed="random" from="InB_ES_1" to="OutB_SW_1"/>
    <trip id="29" type="vehDist1" depart="29.00" departLane="random" departPos="random" departSpeed="random" from="InB_WS_1" to="OutB_NE_1"/>
    <trip id="30" type="vehDist0" depart="30.00" departLane="random" departPos="random" departSpeed="random" from="InB_SE_1" to="OutB_NE_1"/>
    <trip id="31" type="vehDist1" depart="31.00" departLane="random" departPos="random" departSpeed="random" from="InB_SM_1" to="OutB_NM_1"/>
    <trip id="32" type="vehDist3" depart="32.00" departLane="random" departPos="random" departSpeed="random" from="InB_SW_1" to="OutB_NW_1"/>
    <trip id="33" type="vehDist0" depart="33.00" departLane="random" departPos="random" departSpeed="random" from="InB_NW_1" to="OutB_WS_1"/>
    <trip id="34" type="vehDist4" depart="34.00" departLane="random" departPos="random" departSpeed="random" from="InB_EM_1" to="OutB_SW_1"/>
    <trip id="35" type="vehDist0" depart="35.00" departLane="random" departPos="random" departSpeed="random" from="InB_ES_1" to="OutB_WM_1"/>
    <trip id="36" type="vehDist3" depart="36.00" departLane="random" departPos="random" departSpeed="random" from="InB_NE_1" to="OutB_WS_1"/>
    <trip id="37" type="vehDist1" depart="37.00" departLane="random" departPos="random" departSpeed="random" from="InB_SW_1" to="OutB_ES_1"/>
    <trip id="38" type="vehDist0" depart="38.00" departLane="random" departPos="random" departSpeed="random" from="InB_WS_1" to="OutB_SE_1"/>
    <trip id="39" type="vehDist0" depart="39.00" departLane="random" departPos="random" departSpeed="random" from="InB_EM_1" to="OutB_WS_1"/>
    <trip id="40" type="vehDist2" depart="40.00" departLane="random" departPos="random" departSpeed="random" from="InB_WS_1" to="OutB_EM_1"/>
    <trip id="41" type="vehDist4" depart="41.00" departLane="random" departPos="random" departSpeed="random" from="InB_NE_1" to="OutB_ES_1"/>
    <trip id="42" type="vehDist1" depart="42.00" departLane="random" departPos="random" departSpeed="random" from="InB_ES_1" to="OutB_WS_1"/>
    <trip id="43" type="vehDist1" depart="43.00" departLane="random" departPos="random" departSpeed="random" from="InB_WM_1" to="OutB_NE_1"/>
    <trip id="44" type="vehDist0" depart="44.00" departLane="random" departPos="random" departSpeed="random" from="InB_ES_1" to="OutB_SW_1"/>
    <trip id="45" type="vehDist2" depart="45.00" departLane="random" departPos="random" departSpeed="random" from="InB_SE_1" to="OutB_WM_1"/>
    <trip id="46" type="vehDist1" depart="46.00" departLane="random" departPos="random" departSpeed="random" from="InB_NE_1" to="OutB_SE_1"/>
    <trip id="47" type="vehDist4" depart="47.00" departLane="random" departPos="random" departSpeed="random" from="InB_SW_1" to="OutB_ES_1"/>
    <trip id="48" type="vehDist0" depart="48.00" departLane="random" departPos="random" departSpeed="random" from="InB_ES_1" to="OutB_NW_1"/>
    <trip id="49" type="vehDist3" depart="49.00" departLane="random" departPos="random" departSpeed="random" from="InB_NM_1" to="OutB_ES_1"/>
    <trip id="50" type="vehDist3" depart="50.00" departLane="random" departPos="random" departSpeed="random" from="InB_SE_1" to="OutB_NE_1"/>
    <trip id="51" type="vehDist2" depart="51.00" departLane="random" departPos="random" departSpeed="random" from="InB_ES_1" to="OutB_NE_1"/>
    <trip id="52" type="vehDist3" depart="52.00" departLane="random" departPos="random" departSpeed="random" from="InB_NE_1" to="OutB_WN_1"/>
    <trip id="53" type="vehDist4" depart="53.00" departLane="random" departPos="random" departSpeed="random" from="InB_SE_1" to="OutB_NE_1"/>
    <trip id="54" type="vehDist4" depart="54.00" departLane="random" departPos="random" departSpeed="random" from="InB_EN_1" to="OutB_SM_1"/>
    <trip id="55" type="vehDist1" depart="55.00" departLane="random" departPos="random" departSpeed="random" from="InB_WN_1" to="OutB_ES_1"/>
    <trip id="56" type="vehDist2" depart="56.00" departLane="random" departPos="random" departSpeed="random" from="InB_NM_1" to="OutB_SE_1"/>
    <trip id="57" type="vehDist2" depart="57.00" departLane="random" departPos="random" departSpeed="random" from="InB_WS_1" to="OutB_NW_1"/>
    <trip id="58" type="vehDist0" depart="58.00" departLane="random" departPos="random" departSpeed="random" from="InB_NM_1" to="OutB_SE_1"/>
    <trip id="59" type="vehDist4" depart="59.00" departLane="random" departPos="random" departSpeed="random" from="InB_EN_1" to="OutB_SE_1"/>
    <trip id="60" type="vehDist0" depart="60.00" departLane="random" departPos="random" departSpeed="random" from="InB_ES_1" to="OutB_SW_1"/>
    <trip id="61" type="vehDist3" depart="61.00" departLane="random" departPos="random" departSpeed="random" from="InB_SW_1" to="OutB_NE_1"/>
    <trip id="62" type="vehDist0" depart="62.00" departLane="random" departPos="random" departSpeed="random" from="InB_EM_1" to="OutB_NW_1"/>
    <trip id="63" type="vehDist0" depart="63.00" departLane="random" departPos="random" departSpeed="random" from="InB_EN_1" to="OutB_SM_1"/>
    <trip id="64" type="vehDist1" depart="64.00" departLane="random" departPos="random" departSpeed="random" from="InB_SW_1" to="OutB_NM_1"/>
    <trip id="65" type="vehDist2" depart="65.00" departLane="random" departPos="random" departSpeed="random" from="InB_WM_1" to="OutB_SE_1"/>
    <trip id="66" type="vehDist4" depart="66.00" departLane="random" departPos="random" departSpeed="random" from="InB_EN_1" to="OutB_WN_1"/>
    <trip id="67" type="vehDist0" depart="67.00" departLane="random" departPos="random" departSpeed="random" from="InB_SM_1" to="OutB_NM_1"/>
    <trip id="68" type="vehDist0" depart="68.00" departLane="random" departPos="random" departSpeed="random" from="InB_ES_1" to="OutB_WM_1"/>
    <trip id="69" type="vehDist4" depart="69.00" departLane="random" departPos="random" departSpeed="random" from="InB_SE_1" to="OutB_EN_1"/>
    <trip id="70" type="vehDist1" depart="70.00" departLane="random" departPos="random" departSpeed="random" from="InB_WM_1" to="OutB_EM_1"/>
    <trip id="71" type="vehDist1" depart="71.00" departLane="random" departPos="random" departSpeed="random" from="InB_WS_1" to="OutB_NE_1"/>
    <trip id="72" type="vehDist0" depart="72.00" departLane="random" departPos="random" departSpeed="random" from="InB_WN_1" to="OutB_SW_1"/>
    <trip id="73" type="vehDist2" depart="73.00" departLane="random" departPos="random" departSpeed="random" from="InB_WS_1" to="OutB_NE_1"/>
    <trip id="74" type="vehDist1" depart="74.00" departLane="random" departPos="random" departSpeed="random" from="InB_SM_1" to="OutB_WN_1"/>
    <trip id="75" type="vehDist0" depart="75.00" departLane="random" departPos="random" departSpeed="random" from="InB_EM_1" to="OutB_WN_1"/>
    <trip id="76" type="vehDist0" depart="76.00" departLane="random" departPos="random" departSpeed="random" from="InB_NM_1" to="OutB_WS_1"/>
    <trip id="77" type="vehDist0" depart="77.00" departLane="random" departPos="random" departSpeed="random" from="InB_EN_1" to="OutB_WM_1"/>
    <trip id="78" type="vehDist3" depart="78.00" departLane="random" departPos="random" departSpeed="random" from="InB_WN_1" to="OutB_ES_1"/>
    <trip id="79" type="vehDist1" depart="79.00" departLane="random" departPos="random" departSpeed="random" from="InB_NW_1" to="OutB_ES_1"/>
    <trip id="80" type="vehDist1" depart="80.00" departLane="random" departPos="random" departSpeed="random" from="InB_NM_1" to="OutB_WS_1"/>
    <trip id="81" type="vehDist1" depart="81.00" departLane="random" departPos="random" departSpeed="random" from="InB_NW_1" to="OutB_WS_1"/>
    <trip id="82" type="vehDist3" depart="82.00" departLane="random" departPos="random" departSpeed="random" from="InB_WS_1" to="OutB_EN_1"/>
    <trip id="83" type="vehDist2" depart="83.00" departLane="random" departPos="random" departSpeed="random" from="InB_ES_1" to="OutB_NW_1"/>
    <trip id="84" type="vehDist3" depart="84.00" departLane="random" departPos="random" departSpeed="random" from="InB_EM_1" to="OutB_SW_1"/>
    <trip id="85" type="vehDist1" depart="85.00" departLane="random" departPos="random" departSpeed="random" from="InB_EN_1" to="OutB_SM_1"/>
    <trip id="86" type="vehDist2" depart="86.00" departLane="random" departPos="random" departSpeed="random" from="InB_NE_1" to="OutB_WS_1"/>
    <trip id="87" type="vehDist4" depart="87.00" departLane="random" departPos="random" departSpeed="random" from="InB_WM_1" to="OutB_NE_1"/>
    <trip id="88" type="vehDist2" depart="88.00" departLane="random" departPos="random" departSpeed="random" from="InB_NE_1" to="OutB_SM_1"/>
    <trip id="89" type="vehDist2" depart="89.00" departLane="random" departPos="random" departSpeed="random" from="InB_ES_1" to="OutB_NM_1"/>
    <trip id="90" type="vehDist1" depart="90.00" departLane="random" departPos="random" departSpeed="random" from="InB_NM_1" to="OutB_SE_1"/>
    <trip id="91" type="vehDist4" depart="91.00" departLane="random" departPos="random" departSpeed="random" from="InB_SW_1" to="OutB_ES_1"/>
    <trip id="92" type="vehDist0" depart="92.00" departLane="random" departPos="random" departSpeed="random" from="InB_SE_1" to="OutB_NW_1"/>
    <trip id="93" type="vehDist1" depart="93.00" departLane="random" departPos="random" departSpeed="random" from="InB_WN_1" to="OutB_SW_1"/>
    <trip id="94" type="vehDist0" depart="94.00" departLane="random" departPos="random" departSpeed="random" from="InB_WN_1" to="OutB_NE_1"/>
    <trip id="95" type="vehDist4" depart="95.00" departLane="random" departPos="random" departSpeed="random" from="InB_NM_1" to="OutB_SW_1"/>
    <trip id="96" type="vehDist3" depart="96.00" departLane="random" departPos="random" departSpeed="random" from="InB_SM_1" to="OutB_NM_1"/>
    <trip id="97" type="vehDist4" depart="97.00" departLane="random" departPos="random" departSpeed="random" from="InB_EM_1" to="OutB_WS_1"/>
    <trip id="98" type="vehDist2" depart="98.00" departLane="random" departPos="random" departSpeed="random" from="InB_NW_1" to="OutB_SW_1"/>
    <trip id="99" type="vehDist2" depart="99.00" departLane="random" departPos="random" departSpeed="random" from="InB_WS_1" to="OutB_NW_1"/>
    <trip id="100" type="vehDist3" depart="100.00" departLane="random" departPos="random" departSpeed="random" from="InB_NM_1" to="OutB_SE_1"/>
    <trip id="101" type="vehDist2" depart="101.00" departLane="random" departPos="random" departSpeed="random" from="InB_EM_1" to="OutB_NW_1"/>
    <trip id="102" type="vehDist4" depart="102.00" departLane="random" departPos="random" departSpeed="random" from="InB_NM_1" to="OutB_SE_1"/>
    <trip id="103" type="vehDist2" depart="103.00" departLane="random" departPos="random" departSpeed="random" from="InB_EN_1" to="OutB_NW_1"/>
    <trip id="104" type="vehDist4" depart="104.00" departLane="random" departPos="random" departSpeed="random" from="InB_WN_1" to="OutB_ES_1"/>
    <trip id="105" type="vehDist1" depart="105.00" departLane="random" departPos="random" departSpeed="random" from="InB_NW_1" to="OutB_EM_1"/>
    <trip id="106" type="vehDist2" depart="106.00" departLane="random" departPos="random" departSpeed="random" from="InB_SE_1" to="OutB_NE_1"/>
    <trip id="107" type="vehDist1" depart="107.00" departLane="random" departPos="random" departSpeed="random" from="InB_WS_1" to="OutB_NE_1"/>
    <trip id="108" type="vehDist3" depart="108.00" departLane="random" departPos="random" departSpeed="random" from="InB_SE_1" to="OutB_NM_1"/>
    <trip id="109" type="vehDist0" depart="109.00" departLane="random" departPos="random" departSpeed="random" from="InB_WM_1" to="OutB_EM_1"/>
    <trip id="110" type="vehDist2" depart="110.00" departLane="random" departPos="random" departSpeed="random" from="InB_SE_1" to="OutB_NM_1"/>
    <trip id="111" type="vehDist3" depart="111.00" departLane="random" departPos="random" departSpeed="random" from="InB_SM_1" to="OutB_EN_1"/>
    <trip id="112" type="vehDist3" depart="112.00" departLane="random" departPos="random" departSpeed="random" from="InB_NW_1" to="OutB_WS_1"/>
    <trip id="113" type="vehDist1" depart="113.00" departLane="random" departPos="random" departSpeed="random" from="InB_WN_1" to="OutB_EN_1"/>
    <trip id="114" type="vehDist3" depart="114.00" departLane="random" departPos="random" departSpeed="random" from="InB_WM_1" to="OutB_ES_1"/>
    <trip id="115" type="vehDist0" depart="115.00" departLane="random" departPos="random" departSpeed="random" from="InB_WM_1" to="OutB_EN_1"/>
    <trip id="116" type="vehDist3" depart="116.00" departLane="random" departPos="random" departSpeed="random" from="InB_SW_1" to="OutB_WN_1"/>
    <trip id="117" type="vehDist0" depart="117.00" departLane="random" departPos="random" departSpeed="random" from="InB_SW_1" to="OutB_EM_1"/>
    <trip id="118" type="vehDist4" depart="118.00" departLane="random" departPos="random" departSpeed="random" from="InB_EM_1" to="OutB_SW_1"/>
    <trip id="119" type="vehDist1" depart="119.00" departLane="random" departPos="random" departSpeed="random" from="InB_SW_1" to="OutB_ES_1"/>
    <trip id="120" type="vehDist2" depart="120.00" departLane="random" departPos="random" departSpeed="random" from="InB_SE_1" to="OutB_EN_1"/>
    <trip id="121" type="vehDist0" depart="121.00" departLane="random" departPos="random" departSpeed="random" from="InB_SE_1" to="OutB_WS_1"/>
    <trip id="122" type="vehDist1" depart="122.00" departLane="random" departPos="random" departSpeed="random" from="InB_EN_1" to="OutB_SE_1"/>
    <trip id="123" type="vehDist3" depart="123.00" departLane="random" departPos="random" departSpeed="random" from="InB_SE_1" to="OutB_NW_1"/>
    <trip id="124" type="vehDist4" depart="124.00" departLane="random" departPos="random" departSpeed="random" from="InB_WS_1" to="OutB_NE_1"/>
    <trip id="125" type="vehDist4" depart="125.00" departLane="random" departPos="random" departSpeed="random" from="InB_WN_1" to="OutB_NE_1"/>
    <trip id="126" type="vehDist0" depart="126.00" departLane="random" departPos="random" departSpeed="random" from="InB_SE_1" to="OutB_NM_1"/>
    <trip id="127" type="vehDist4" depart="127.00" departLane="random" departPos="random" departSpeed="random" from="InB_WM_1" to="OutB_EM_1"/>
    <trip id="128" type="vehDist1" depart="128.00" departLane="random" departPos="random" departSpeed="random" from="InB_EM_1" to="OutB_NW_1"/>
    <trip id="129" type="vehDist3" depart="129.00" departLane="random" departPos="random" departSpeed="random" from="InB_ES_1" to="OutB_WN_1"/>
    <trip id="130" type="vehDist2" depart="130.00" departLane="random" departPos="random" departSpeed="random" from="InB_NW_1" to="OutB_SM_1"/>
    <trip id="131" type="vehDist2" depart="131.00" departLane="random" departPos="random" departSpeed="random" from="InB_WN_1" to="OutB_EM_1"/>
    <trip id="132" type="vehDist1" depart="132.00" departLane="random" departPos="random" departSpeed="random" from="InB_EM_1" to="OutB_NW_1"/>
    <trip id="133" type="vehDist1" depart="133.00" departLane="random" departPos="random" departSpeed="random" from="InB_NM_1" to="OutB_SM_1"/>
    <trip id="134" type="vehDist3" depart="134.00" departLane="random" departPos="random" departSpeed="random" from="InB_EM_1" to="OutB_SW_1"/>
    <trip id="135" type="vehDist2" depart="135.00" departLane="random" departPos="random" departSpeed="random" from="InB_NE_1" to="OutB_ES_1"/>
    <trip id="136" type="vehDist2" depart="136.00" departLane="random" departPos="random" departSpeed="random" from="InB_SE_1" to="OutB_EN_1"/>
    <trip id="137" type="vehDist0" depart="137.00" departLane="random" departPos="random" departSpeed="random" from="InB_NE_1" to="OutB_SM_1"/>
    <trip id="138" type="vehDist4" depart="138.00" departLane="random" departPos="random" departSpeed="random" from="InB_EM_1" to="OutB_WN_1"/>
    <trip id="139" type="vehDist3" depart="139.00" departLane="random" departPos="random" departSpeed="random" from="InB_NW_1" to="OutB_EN_1"/>
    <trip id="140" type="vehDist4" depart="140.00" departLane="random" departPos="random" departSpeed="random" from="InB_WS_1" to="OutB_EN_1"/>
    <trip id="141" type="vehDist4" depart="141.00" departLane="random" departPos="random" departSpeed="random" from="InB_SM_1" to="OutB_NM_1"/>
    <trip id="142" type="vehDist2" depart="142.00" departLane="random" departPos="random" departSpeed="random" from="InB_WM_1" to="OutB_ES_1"/>
    <trip id="143" type="vehDist0" depart="143.00" departLane="random" departPos="random" departSpeed="random" from="InB_EM_1" to="OutB_WM_1"/>
    <trip id="144" type="vehDist4" depart="144.00" departLane="random" departPos="random" departSpeed="random" from="InB_WM_1" to="OutB_EN_1"/>
    <trip id="145" type="vehDist4" depart="145.00" departLane="random" departPos="random" departSpeed="random" from="InB_EN_1" to="OutB_WM_1"/>
    <trip id="146" type="vehDist2" depart="146.00" departLane="random" departPos="random" departSpeed="random" from="InB_NM_1" to="OutB_ES_1"/>
    <trip id="147" type="vehDist4" depart="147.00" departLane="random" departPos="random" departSpeed="random" from="InB_NE_1" to="OutB_ES_1"/>
    <trip id="148" type="vehDist0" depart="148.00" departLane="random" departPos="random" departSpeed="random" from="InB_NM_1" to="OutB_WS_1"/>
    <trip id="149" type="vehDist1" depart="149.00" departLane="random" departPos="random" departSpeed="random" from="InB_SW_1" to="OutB_NW_1"/>
    <trip id="150" type="vehDist3" depart="150.00" departLane="random" departPos="random" departSpeed="random" from="InB_ES_1" to="OutB_WM_1"/>
    <trip id="151" type="vehDist2" depart="151.00" departLane="random" departPos="random" departSpeed="random" from="InB_SW_1" to="OutB_ES_1"/>
    <trip id="152" type="vehDist1" depart="152.00" departLane="random" departPos="random" departSpeed="random" from="InB_WN_1" to="OutB_NE_1"/>
    <trip id="153" type="vehDist0" depart="153.00" departLane="random" departPos="random" departSpeed="random" from="InB_WS_1" to="OutB_ES_1"/>
    <trip id="154" type="vehDist3" depart="154.00" departLane="random" departPos="random" departSpeed="random" from="InB_EN_1" to="OutB_NW_1"/>
    <trip id="155" type="vehDist4" depart="155.00" departLane="random" departPos="random" departSpeed="random" from="InB_EM_1" to="OutB_SW_1"/>
    <trip id="156" type="vehDist0" depart="156.00" departLane="random" departPos="random" departSpeed="random" from="InB_WS_1" to="OutB_EM_1"/>
    <trip id="157" type="vehDist2" depart="157.00" departLane="random" departPos="random" departSpeed="random" from="InB_EN_1" to="OutB_WS_1"/>
    <trip id="158" type="vehDist4" depart="158.00" departLane="random" departPos="random" departSpeed="random" from="InB_NE_1" to="OutB_SE_1"/>
    <trip id="159" type="vehDist2" depart="159.00" departLane="random" departPos="random" departSpeed="random" from="InB_EN_1" to="OutB_SE_1"/>
    <trip id="160" type="vehDist0" depart="160.00" departLane="random" departPos="random" departSpeed="random" from="InB_SM_1" to="OutB_WN_1"/>
    <trip id="161" type="vehDist4" depart="161.00" departLane="random" departPos="random" departSpeed="random" from="InB_WM_1" to="OutB_EM_1"/>
    <trip id="162" type="vehDist4" depart="162.00" departLane="random" departPos="random" departSpeed="random" from="InB_EM_1" to="OutB_SW_1"/>
    <trip id="163" type="vehDist1" depart="163.00" departLane="random" departPos="random" departSpeed="random" from="InB_EM_1" to="OutB_WN_1"/>
    <trip id="164" type="vehDist4" depart="164.00" departLane="random" departPos="random" departSpeed="random" from="InB_EN_1" to="OutB_WN_1"/>
    <trip id="165" type="vehDist2" depart="165.00" departLane="random" departPos="random" departSpeed="random" from="InB_NW_1" to="OutB_SM_1"/>
    <trip id="166" type="vehDist4" depart="166.00" departLane="random" departPos="random" departSpeed="random" from="InB_WM_1" to="OutB_NE_1"/>
    <trip id="167" type="vehDist3" depart="167.00" departLane="random" departPos="random" departSpeed="random" from="InB_EN_1" to="OutB_WN_1"/>
    <trip id="168" type="vehDist2" depart="168.00" departLane="random" departPos="random" departSpeed="random" from="InB_ES_1" to="OutB_NW_1"/>
    <trip id="169" type="vehDist4" depart="169.00" departLane="random" departPos="random" departSpeed="random" from="InB_SM_1" to="OutB_NM_1"/>
    <trip id="170" type="vehDist1" depart="170.00" departLane="random" departPos="random" departSpeed="random" from="InB_NM_1" to="OutB_ES_1"/>
    <trip id="171" type="vehDist1" depart="171.00" departLane="random" departPos="random" departSpeed="random" from="InB_ES_1" to="OutB_WN_1"/>
    <trip id="172" type="vehDist0" depart="172.00" departLane="random" departPos="random" departSpeed="random" from="InB_SW_1" to="OutB_NW_1"/>
    <trip id="173" type="vehDist2" depart="173.00" departLane="random" departPos="random" departSpeed="random" from="InB_NM_1" to="OutB_ES_1"/>
    <trip id="174" type="vehDist1" depart="174.00" departLane="random" departPos="random" departSpeed="random" from="InB_NW_1" to="OutB_EN_1"/>
    <trip id="175" type="vehDist3" depart="175.00" departLane="random" departPos="random" departSpeed="random" from="InB_WS_1" to="OutB_EM_1"/>
    <trip id="176" type="vehDist2" depart="176.00" departLane="random" departPos="random" departSpeed="random" from="InB_SW_1" to="OutB_NM_1"/>
    <trip id="177" type="vehDist1" depart="177.00" departLane="random" departPos="random" departSpeed="random" from="InB_WS_1" to="OutB_SE_1"/>
    <trip id="178" type="vehDist4" depart="178.00" departLane="random" departPos="random" departSpeed="random" from="InB_EN_1" to="OutB_WN_1"/>
    <trip id="179" type="vehDist0" depart="179.00" departLane="random" departPos="random" departSpeed="random" from="InB_ES_1" to="OutB_NW_1"/>
    <trip id="180" type="vehDist2" depart="180.00" departLane="random" departPos="random" departSpeed="random" from="InB_ES_1" to="OutB_NE_1"/>
    <trip id="181" type="vehDist0" depart="181.00" departLane="random" departPos="random" departSpeed="random" from="InB_SW_1" to="OutB_EM_1"/>
    <trip id="182" type="vehDist3" depart="182.00" departLane="random" departPos="random" departSpeed="random" from="InB_SE_1" to="OutB_NE_1"/>
    <trip id="183" type="vehDist0" depart="183.00" departLane="random" departPos="random" departSpeed="random" from="InB_SW_1" to="OutB_NM_1"/>
    <trip id="184" type="vehDist0" depart="184.00" departLane="random" departPos="random" departSpeed="random" from="InB_WN_1" to="OutB_SE_1"/>
    <trip id="185" type="vehDist1" depart="185.00" departLane="random" departPos="random" departSpeed="random" from="InB_WN_1" to="OutB_SE_1"/>
    <trip id="186" type="vehDist1" depart="186.00" departLane="random" departPos="random" departSpeed="random" from="InB_NW_1" to="OutB_EN_1"/>
    <trip id="187" type="vehDist0" depart="187.00" departLane="random" departPos="random" departSpeed="random" from="InB_SM_1" to="OutB_EN_1"/>
    <trip id="188" type="vehDist4" depart="188.00" departLane="random" departPos="random" departSpeed="random" from="InB_WS_1" to="OutB_NM_1"/>
    <trip id="189" type="vehDist1" depart="189.00" departLane="random" departPos="random" departSpeed="random" from="InB_NW_1" to="OutB_ES_1"/>
    <trip id="190" type="vehDist1" depart="190.00" departLane="random" departPos="random" departSpeed="random" from="InB_ES_1" to="OutB_WN_1"/>
    <trip id="191" type="vehDist4" depart="191.00" departLane="random" departPos="random" departSpeed="random" from="InB_SM_1" to="OutB_NM_1"/>
    <trip id="192" type="vehDist2" depart="192.00" departLane="random" departPos="random" departSpeed="random" from="InB_WM_1" to="OutB_ES_1"/>
    <trip id="193" type="vehDist0" depart="193.00" departLane="random" departPos="random" departSpeed="random" from="InB_WS_1" to="OutB_ES_1"/>
    <trip id="194" type="vehDist1" depart="194.00" departLane="random" departPos="random" departSpeed="random" from="InB_NW_1" to="OutB_EN_1"/>
    <trip id="195" type="vehDist4" depart="195.00" departLane="random" departPos="random" departSpeed="random" from="InB_WN_1" to="OutB_NE_1"/>
    <trip id="196" type="vehDist1" depart="196.00" departLane="random" departPos="random" departSpeed="random" from="InB_EN_1" to="OutB_SW_1"/>
    <trip id="197" type="vehDist4" depart="197.00" departLane="random" departPos="random" departSpeed="random" from="InB_SE_1" to="OutB_NM_1"/>
    <trip id="198" type="vehDist2" depart="198.00" departLane="random" departPos="random" departSpeed="random" from="InB_EN_1" to="OutB_WS_1"/>