<?xml version="1.0" encoding="UTF-8"?>

<!-- generated on 03/10/21 23:48:37 by Eclipse SUMO duarouter Version 1.6.0
<configuration xmlns:xsi="http://www.w3.org/2001/XMLSchema-instance" xsi:noNamespaceSchemaLocation="http://sumo.dlr.de/xsd/duarouterConfiguration.xsd">

    <input>
        <net-file value="../16-way.net.xml"/>
        <route-files value="trips.trips.xml"/>
    </input>

    <output>
        <output-file value="trips.trips.xml.tmp"/>
        <write-trips value="true"/>
    </output>

    <time>
        <begin value="0"/>
        <end value="10800.0"/>
    </time>

    <report>
        <no-warnings value="true"/>
        <ignore-errors value="true"/>
        <no-step-log value="true"/>
    </report>

</configuration>
-->

<routes xmlns:xsi="http://www.w3.org/2001/XMLSchema-instance" xsi:noNamespaceSchemaLocation="http://sumo.dlr.de/xsd/routes_file.xsd">
    <vType id="passenger" length="4.70" minGap="1.30" vClass="passenger"/>
    <trip id="0" type="passenger" depart="0.00" departLane="best" departPos="random" departSpeed="random" from="InB_SW_1" to="OutB_NW_1"/>
    <trip id="1" type="passenger" depart="0.50" departLane="best" departPos="random" departSpeed="random" from="InB_NE_1" to="OutB_WN_1"/>
    <trip id="2" type="passenger" depart="1.00" departLane="best" departPos="random" departSpeed="random" from="InB_NW_1" to="OutB_EN_1"/>
    <trip id="3" type="passenger" depart="1.50" departLane="best" departPos="random" departSpeed="random" from="InB_SW_1" to="OutB_SW_1"/>
    <trip id="4" type="passenger" depart="2.00" departLane="best" departPos="random" departSpeed="random" from="InB_SW_1" to="OutB_EN_1"/>
    <trip id="5" type="passenger" depart="2.50" departLane="best" departPos="random" departSpeed="random" from="InB_EN_1" to="OutB_SE_1"/>
    <trip id="6" type="passenger" depart="3.00" departLane="best" departPos="random" departSpeed="random" from="InB_SW_1" to="OutB_SW_1"/>
    <trip id="7" type="passenger" depart="3.50" departLane="best" departPos="random" departSpeed="random" from="InB_NW_1" to="OutB_EN_1"/>
    <trip id="8" type="passenger" depart="4.00" departLane="best" departPos="random" departSpeed="random" from="InB_NW_1" to="OutB_SW_1"/>
    <trip id="9" type="passenger" depart="4.50" departLane="best" departPos="random" departSpeed="random" from="InB_SE_1" to="OutB_NW_1"/>
    <trip id="10" type="passenger" depart="5.00" departLane="best" departPos="random" departSpeed="random" from="InB_NE_1" to="OutB_SE_1"/>
    <trip id="11" type="passenger" depart="5.50" departLane="best" departPos="random" departSpeed="random" from="InB_NW_1" to="OutB_WN_1"/>
    <trip id="12" type="passenger" depart="6.00" departLane="best" departPos="random" departSpeed="random" from="InB_WS_1" to="OutB_EN_1"/>
    <trip id="13" type="passenger" depart="6.50" departLane="best" departPos="random" departSpeed="random" from="InB_SW_1" to="OutB_EN_1"/>
    <trip id="14" type="passenger" depart="7.00" departLane="best" departPos="random" departSpeed="random" from="InB_NE_1" to="OutB_WS_1"/>
    <trip id="15" type="passenger" depart="7.50" departLane="best" departPos="random" departSpeed="random" from="InB_SW_1" to="OutB_WN_1"/>
    <trip id="16" type="passenger" depart="8.00" departLane="best" departPos="random" departSpeed="random" from="InB_NE_1" to="OutB_SE_1"/>
    <trip id="17" type="passenger" depart="8.50" departLane="best" departPos="random" departSpeed="random" from="InB_NW_1" to="OutB_EN_1"/>
    <trip id="18" type="passenger" depart="9.00" departLane="best" departPos="random" departSpeed="random" from="InB_WN_1" to="OutB_SE_1"/>
    <trip id="19" type="passenger" depart="9.50" departLane="best" departPos="random" departSpeed="random" from="InB_WN_1" to="OutB_NE_1"/>
    <trip id="20" type="passenger" depart="10.00" departLane="best" departPos="random" departSpeed="random" from="InB_ES_1" to="OutB_WN_1"/>
    <trip id="21" type="passenger" depart="10.50" departLane="best" departPos="random" departSpeed="random" from="InB_NE_1" to="OutB_ES_1"/>
    <trip id="22" type="passenger" depart="11.00" departLane="best" departPos="random" departSpeed="random" from="InB_SE_1" to="OutB_NW_1"/>
    <trip id="23" type="passenger" depart="11.50" departLane="best" departPos="random" departSpeed="random" from="InB_NW_1" to="OutB_ES_1"/>
    <trip id="24" type="passenger" depart="12.00" departLane="best" departPos="random" departSpeed="random" from="InB_NE_1" to="OutB_WS_1"/>
    <trip id="25" type="passenger" depart="12.50" departLane="best" departPos="random" departSpeed="random" from="InB_WN_1" to="OutB_EN_1"/>
    <trip id="26" type="passenger" depart="13.00" departLane="best" departPos="random" departSpeed="random" from="InB_EN_1" to="OutB_NE_1"/>
    <trip id="27" type="passenger" depart="13.50" departLane="best" departPos="random" departSpeed="random" from="InB_SW_1" to="OutB_WS_1"/>
    <trip id="28" type="passenger" depart="14.00" departLane="best" departPos="random" departSpeed="random" from="InB_SW_1" to="OutB_NW_1"/>
    <trip id="29" type="passenger" depart="14.50" departLane="best" departPos="random" departSpeed="random" from="InB_NW_1" to="OutB_WN_1"/>
    <trip id="30" type="passenger" depart="15.00" departLane="best" departPos="random" departSpeed="random" from="InB_SW_1" to="OutB_WN_1"/>
    <trip id="31" type="passenger" depart="15.50" departLane="best" departPos="random" departSpeed="random" from="InB_SW_1" to="OutB_SW_1"/>
    <trip id="32" type="passenger" depart="16.00" departLane="best" departPos="random" departSpeed="random" from="InB_SE_1" to="OutB_NE_1"/>
    <trip id="33" type="passenger" depart="16.50" departLane="best" departPos="random" departSpeed="random" from="InB_NW_1" to="OutB_ES_1"/>
    <trip id="34" type="passenger" depart="17.00" departLane="best" departPos="random" departSpeed="random" from="InB_NW_1" to="OutB_SE_1"/>
    <trip id="35" type="passenger" depart="17.50" departLane="best" departPos="random" departSpeed="random" from="InB_WS_1" to="OutB_SW_1"/>
    <trip id="36" type="passenger" depart="18.00" departLane="best" departPos="random" departSpeed="random" from="InB_WS_1" to="OutB_SW_1"/>
    <trip id="37" type="passenger" depart="18.50" departLane="best" departPos="random" departSpeed="random" from="InB_NW_1" to="OutB_ES_1"/>
    <trip id="38" type="passenger" depart="19.00" departLane="best" departPos="random" departSpeed="random" from="InB_ES_1" to="OutB_WN_1"/>
    <trip id="39" type="passenger" depart="19.50" departLane="best" departPos="random" departSpeed="random" from="InB_WS_1" to="OutB_WS_1"/>
    <trip id="40" type="passenger" depart="20.00" departLane="best" departPos="random" departSpeed="random" from="InB_ES_1" to="OutB_EN_1"/>
    <trip id="41" type="passenger" depart="20.50" departLane="best" departPos="random" departSpeed="random" from="InB_SE_1" to="OutB_EN_1"/>
    <trip id="42" type="passenger" depart="21.00" departLane="best" departPos="random" departSpeed="random" from="InB_WN_1" to="OutB_SW_1"/>
    <trip id="43" type="passenger" depart="21.50" departLane="best" departPos="random" departSpeed="random" from="InB_NE_1" to="OutB_WS_1"/>
    <trip id="44" type="passenger" depart="22.00" departLane="best" departPos="random" departSpeed="random" from="InB_ES_1" to="OutB_SW_1"/>
    <trip id="45" type="passenger" depart="22.50" departLane="best" departPos="random" departSpeed="random" from="InB_ES_1" to="OutB_NW_1"/>
    <trip id="46" type="passenger" depart="23.00" departLane="best" departPos="random" departSpeed="random" from="InB_EN_1" to="OutB_SW_1"/>
    <trip id="47" type="passenger" depart="23.50" departLane="best" departPos="random" departSpeed="random" from="InB_NW_1" to="OutB_ES_1"/>
    <trip id="48" type="passenger" depart="24.00" departLane="best" departPos="random" departSpeed="random" from="InB_SE_1" to="OutB_SE_1"/>
    <trip id="49" type="passenger" depart="24.50" departLane="best" departPos="random" departSpeed="random" from="InB_WS_1" to="OutB_SW_1"/>
    <trip id="50" type="passenger" depart="25.00" departLane="best" departPos="random" departSpeed="random" from="InB_WS_1" to="OutB_SE_1"/>
    <trip id="51" type="passenger" depart="25.50" departLane="best" departPos="random" departSpeed="random" from="InB_NW_1" to="OutB_SE_1"/>
    <trip id="52" type="passenger" depart="26.00" departLane="best" departPos="random" departSpeed="random" from="InB_EN_1" to="OutB_WN_1"/>
    <trip id="53" type="passenger" depart="26.50" departLane="best" departPos="random" departSpeed="random" from="InB_WS_1" to="OutB_EN_1"/>
    <trip id="54" type="passenger" depart="27.00" departLane="best" departPos="random" departSpeed="random" from="InB_SW_1" to="OutB_SE_1"/>
    <trip id="55" type="passenger" depart="27.50" departLane="best" departPos="random" departSpeed="random" from="InB_NE_1" to="OutB_WS_1"/>
    <trip id="56" type="passenger" depart="28.00" departLane="best" departPos="random" departSpeed="random" from="InB_SW_1" to="OutB_SE_1"/>
    <trip id="57" type="passenger" depart="28.50" departLane="best" departPos="random" departSpeed="random" from="InB_WS_1" to="OutB_WS_1"/>
    <trip id="58" type="passenger" depart="29.00" departLane="best" departPos="random" departSpeed="random" from="InB_ES_1" to="OutB_ES_1"/>
    <trip id="59" type="passenger" depart="29.50" departLane="best" departPos="random" departSpeed="random" from="InB_ES_1" to="OutB_SE_1"/>
    <trip id="60" type="passenger" depart="30.00" departLane="best" departPos="random" departSpeed="random" from="InB_ES_1" to="OutB_SW_1"/>
    <trip id="61" type="passenger" depart="30.50" departLane="best" departPos="random" departSpeed="random" from="InB_SW_1" to="OutB_NE_1"/>
    <trip id="62" type="passenger" depart="31.00" departLane="best" departPos="random" departSpeed="random" from="InB_NE_1" to="OutB_NW_1"/>
    <trip id="63" type="passenger" depart="31.50" departLane="best" departPos="random" departSpeed="random" from="InB_EN_1" to="OutB_NW_1"/>
    <trip id="64" type="passenger" depart="32.00" departLane="best" departPos="random" departSpeed="random" from="InB_WN_1" to="OutB_NW_1"/>
    <trip id="65" type="passenger" depart="32.50" departLane="best" departPos="random" departSpeed="random" from="InB_WS_1" to="OutB_SE_1"/>
    <trip id="66" type="passenger" depart="33.00" departLane="best" departPos="random" departSpeed="random" from="InB_NW_1" to="OutB_WN_1"/>
    <trip id="67" type="passenger" depart="33.50" departLane="best" departPos="random" departSpeed="random" from="InB_NE_1" to="OutB_WN_1"/>
    <trip id="68" type="passenger" depart="34.00" departLane="best" departPos="random" departSpeed="random" from="InB_ES_1" to="OutB_NE_1"/>
    <trip id="69" type="passenger" depart="34.50" departLane="best" departPos="random" departSpeed="random" from="InB_NW_1" to="OutB_ES_1"/>
    <trip id="70" type="passenger" depart="35.00" departLane="best" departPos="random" departSpeed="random" from="InB_NW_1" to="OutB_ES_1"/>
    <trip id="71" type="passenger" depart="35.50" departLane="best" departPos="random" departSpeed="random" from="InB_WS_1" to="OutB_ES_1"/>
    <trip id="72" type="passenger" depart="36.00" departLane="best" departPos="random" departSpeed="random" from="InB_NE_1" to="OutB_ES_1"/>
    <trip id="73" type="passenger" depart="36.50" departLane="best" departPos="random" departSpeed="random" from="InB_SW_1" to="OutB_ES_1"/>
    <trip id="74" type="passenger" depart="37.00" departLane="best" departPos="random" departSpeed="random" from="InB_NW_1" to="OutB_SE_1"/>
    <trip id="75" type="passenger" depart="37.50" departLane="best" departPos="random" departSpeed="random" from="InB_SE_1" to="OutB_SW_1"/>
    <trip id="76" type="passenger" depart="38.00" departLane="best" departPos="random" departSpeed="random" from="InB_WS_1" to="OutB_SW_1"/>
    <trip id="77" type="passenger" depart="38.50" departLane="best" departPos="random" departSpeed="random" from="InB_WS_1" to="OutB_SE_1"/>
    <trip id="78" type="passenger" depart="39.00" departLane="best" departPos="random" departSpeed="random" from="InB_SW_1" to="OutB_NE_1"/>
    <trip id="79" type="passenger" depart="39.50" departLane="best" departPos="random" departSpeed="random" from="InB_WN_1" to="OutB_WN_1"/>
    <trip id="80" type="passenger" depart="40.00" departLane="best" departPos="random" departSpeed="random" from="InB_NE_1" to="OutB_WS_1"/>
    <trip id="81" type="passenger" depart="40.50" departLane="best" departPos="random" departSpeed="random" from="InB_WN_1" to="OutB_WS_1"/>
    <trip id="82" type="passenger" depart="41.00" departLane="best" departPos="random" departSpeed="random" from="InB_WN_1" to="OutB_WS_1"/>
    <trip id="83" type="passenger" depart="41.50" departLane="best" departPos="random" departSpeed="random" from="InB_WS_1" to="OutB_ES_1"/>
    <trip id="84" type="passenger" depart="42.00" departLane="best" departPos="random" departSpeed="random" from="InB_EN_1" to="OutB_SE_1"/>
    <trip id="85" type="passenger" depart="42.50" departLane="best" departPos="random" departSpeed="random" from="InB_WS_1" to="OutB_WN_1"/>
    <trip id="86" type="passenger" depart="43.00" departLane="best" departPos="random" departSpeed="random" from="InB_ES_1" to="OutB_NE_1"/>
    <trip id="87" type="passenger" depart="43.50" departLane="best" departPos="random" departSpeed="random" from="InB_ES_1" to="OutB_NE_1"/>
    <trip id="88" type="passenger" depart="44.00" departLane="best" departPos="random" departSpeed="random" from="InB_SW_1" to="OutB_NE_1"/>
    <trip id="89" type="passenger" depart="44.50" departLane="best" departPos="random" departSpeed="random" from="InB_NE_1" to="OutB_NW_1"/>
    <trip id="90" type="passenger" depart="45.00" departLane="best" departPos="random" departSpeed="random" from="InB_NW_1" to="OutB_SE_1"/>
    <trip id="91" type="passenger" depart="45.50" departLane="best" departPos="random" departSpeed="random" from="InB_WN_1" to="OutB_NE_1"/>
    <trip id="92" type="passenger" depart="46.00" departLane="best" departPos="random" departSpeed="random" from="InB_WS_1" to="OutB_WS_1"/>
    <trip id="93" type="passenger" depart="46.50" departLane="best" departPos="random" departSpeed="random" from="InB_WS_1" to="OutB_ES_1"/>
    <trip id="94" type="passenger" depart="47.00" departLane="best" departPos="random" departSpeed="random" from="InB_WN_1" to="OutB_NW_1"/>
    <trip id="95" type="passenger" depart="47.50" departLane="best" departPos="random" departSpeed="random" from="InB_SW_1" to="OutB_EN_1"/>
    <trip id="96" type="passenger" depart="48.00" departLane="best" departPos="random" departSpeed="random" from="InB_NE_1" to="OutB_WN_1"/>
    <trip id="97" type="passenger" depart="48.50" departLane="best" departPos="random" departSpeed="random" from="InB_NE_1" to="OutB_WS_1"/>
    <trip id="98" type="passenger" depart="49.00" departLane="best" departPos="random" departSpeed="random" from="InB_NE_1" to="OutB_SW_1"/>
    <trip id="99" type="passenger" depart="49.50" departLane="best" departPos="random" departSpeed="random" from="InB_WN_1" to="OutB_WS_1"/>
    <trip id="100" type="passenger" depart="50.00" departLane="best" departPos="random" departSpeed="random" from="InB_WS_1" to="OutB_NW_1"/>
    <trip id="101" type="passenger" depart="50.50" departLane="best" departPos="random" departSpeed="random" from="InB_WS_1" to="OutB_WS_1"/>
    <trip id="102" type="passenger" depart="51.00" departLane="best" departPos="random" departSpeed="random" from="InB_EN_1" to="OutB_SE_1"/>
    <trip id="103" type="passenger" depart="51.50" departLane="best" departPos="random" departSpeed="random" from="InB_SW_1" to="OutB_WN_1"/>
    <trip id="104" type="passenger" depart="52.00" departLane="best" departPos="random" departSpeed="random" from="InB_EN_1" to="OutB_WN_1"/>
    <trip id="105" type="passenger" depart="52.50" departLane="best" departPos="random" departSpeed="random" from="InB_WS_1" to="OutB_NE_1"/>
    <trip id="106" type="passenger" depart="53.00" departLane="best" departPos="random" departSpeed="random" from="InB_ES_1" to="OutB_NW_1"/>
    <trip id="107" type="passenger" depart="53.50" departLane="best" departPos="random" departSpeed="random" from="InB_SW_1" to="OutB_SE_1"/>
    <trip id="108" type="passenger" depart="54.00" departLane="best" departPos="random" departSpeed="random" from="InB_ES_1" to="OutB_EN_1"/>
    <trip id="109" type="passenger" depart="54.50" departLane="best" departPos="random" departSpeed="random" from="InB_WN_1" to="OutB_WN_1"/>
    <trip id="110" type="passenger" depart="55.00" departLane="best" departPos="random" departSpeed="random" from="InB_ES_1" to="OutB_SW_1"/>
    <trip id="111" type="passenger" depart="55.50" departLane="best" departPos="random" departSpeed="random" from="InB_ES_1" to="OutB_EN_1"/>
    <trip id="112" type="passenger" depart="56.00" departLane="best" departPos="random" departSpeed="random" from="InB_EN_1" to="OutB_SE_1"/>
    <trip id="113" type="passenger" depart="56.50" departLane="best" departPos="random" departSpeed="random" from="InB_ES_1" to="OutB_NW_1"/>
    <trip id="114" type="passenger" depart="57.00" departLane="best" departPos="random" departSpeed="random" from="InB_WN_1" to="OutB_SE_1"/>
    <trip id="115" type="passenger" depart="57.50" departLane="best" departPos="random" departSpeed="random" from="InB_SE_1" to="OutB_ES_1"/>
    <trip id="116" type="passenger" depart="58.00" departLane="best" departPos="random" departSpeed="random" from="InB_EN_1" to="OutB_SE_1"/>
    <trip id="117" type="passenger" depart="58.50" departLane="best" departPos="random" departSpeed="random" from="InB_WS_1" to="OutB_SE_1"/>
    <trip id="118" type="passenger" depart="59.00" departLane="best" departPos="random" departSpeed="random" from="InB_ES_1" to="OutB_NW_1"/>
    <trip id="119" type="passenger" depart="59.50" departLane="best" departPos="random" departSpeed="random" from="InB_WS_1" to="OutB_SW_1"/>
    <trip id="120" type="passenger" depart="60.00" departLane="best" departPos="random" departSpeed="random" from="InB_ES_1" to="OutB_SE_1"/>
    <trip id="121" type="passenger" depart="60.50" departLane="best" departPos="random" departSpeed="random" from="InB_NW_1" to="OutB_NE_1"/>
    <trip id="122" type="passenger" depart="61.00" departLane="best" departPos="random" departSpeed="random" from="InB_WN_1" to="OutB_NW_1"/>
    <trip id="123" type="passenger" depart="61.50" departLane="best" departPos="random" departSpeed="random" from="InB_NW_1" to="OutB_WS_1"/>
    <trip id="124" type="passenger" depart="62.00" departLane="best" departPos="random" departSpeed="random" from="InB_SW_1" to="OutB_NE_1"/>
    <trip id="125" type="passenger" depart="62.50" departLane="best" departPos="random" departSpeed="random" from="InB_EN_1" to="OutB_SE_1"/>
    <trip id="126" type="passenger" depart="63.00" departLane="best" departPos="random" departSpeed="random" from="InB_SE_1" to="OutB_SW_1"/>
    <trip id="127" type="passenger" depart="63.50" departLane="best" departPos="random" departSpeed="random" from="InB_ES_1" to="OutB_EN_1"/>
    <trip id="128" type="passenger" depart="64.00" departLane="best" departPos="random" departSpeed="random" from="InB_ES_1" to="OutB_SW_1"/>
    <trip id="129" type="passenger" depart="64.50" departLane="best" departPos="random" departSpeed="random" from="InB_SE_1" to="OutB_WS_1"/>
    <trip id="130" type="passenger" depart="65.00" departLane="best" departPos="random" departSpeed="random" from="InB_ES_1" to="OutB_ES_1"/>
    <trip id="131" type="passenger" depart="65.50" departLane="best" departPos="random" departSpeed="random" from="InB_WS_1" to="OutB_EN_1"/>
    <trip id="132" type="passenger" depart="66.00" departLane="best" departPos="random" departSpeed="random" from="InB_SW_1" to="OutB_SW_1"/>
    <trip id="133" type="passenger" depart="66.50" departLane="best" departPos="random" departSpeed="random" from="InB_SW_1" to="OutB_NE_1"/>
    <trip id="134" type="passenger" depart="67.00" departLane="best" departPos="random" departSpeed="random" from="InB_NE_1" to="OutB_SW_1"/>
    <trip id="135" type="passenger" depart="67.50" departLane="best" departPos="random" departSpeed="random" from="InB_WN_1" to="OutB_EN_1"/>
    <trip id="136" type="passenger" depart="68.00" departLane="best" departPos="random" departSpeed="random" from="InB_NE_1" to="OutB_NW_1"/>
    <trip id="137" type="passenger" depart="68.50" departLane="best" departPos="random" departSpeed="random" from="InB_WN_1" to="OutB_EN_1"/>
    <trip id="138" type="passenger" depart="69.00" departLane="best" departPos="random" departSpeed="random" from="InB_ES_1" to="OutB_WN_1"/>
    <trip id="139" type="passenger" depart="69.50" departLane="best" departPos="random" departSpeed="random" from="InB_NE_1" to="OutB_NW_1"/>
    <trip id="140" type="passenger" depart="70.00" departLane="best" departPos="random" departSpeed="random" from="InB_NW_1" to="OutB_SE_1"/>
    <trip id="141" type="passenger" depart="70.50" departLane="best" departPos="random" departSpeed="random" from="InB_WN_1" to="OutB_SE_1"/>
    <trip id="142" type="passenger" depart="71.00" departLane="best" departPos="random" departSpeed="random" from="InB_EN_1" to="OutB_NE_1"/>
    <trip id="143" type="passenger" depart="71.50" departLane="best" departPos="random" departSpeed="random" from="InB_EN_1" to="OutB_ES_1"/>
    <trip id="144" type="passenger" depart="72.00" departLane="best" departPos="random" departSpeed="random" from="InB_EN_1" to="OutB_NE_1"/>
    <trip id="145" type="passenger" depart="72.50" departLane="best" departPos="random" departSpeed="random" from="InB_NE_1" to="OutB_WS_1"/>
    <trip id="146" type="passenger" depart="73.00" departLane="best" departPos="random" departSpeed="random" from="InB_WN_1" to="OutB_EN_1"/>
    <trip id="147" type="passenger" depart="73.50" departLane="best" departPos="random" departSpeed="random" from="InB_ES_1" to="OutB_SW_1"/>
    <trip id="148" type="passenger" depart="74.00" departLane="best" departPos="random" departSpeed="random" from="InB_SE_1" to="OutB_WN_1"/>
    <trip id="149" type="passenger" depart="74.50" departLane="best" departPos="random" departSpeed="random" from="InB_NW_1" to="OutB_SE_1"/>
    <trip id="150" type="passenger" depart="75.00" departLane="best" departPos="random" departSpeed="random" from="InB_WN_1" to="OutB_SE_1"/>
    <trip id="151" type="passenger" depart="75.50" departLane="best" departPos="random" departSpeed="random" from="InB_SW_1" to="OutB_SE_1"/>
    <trip id="152" type="passenger" depart="76.00" departLane="best" departPos="random" departSpeed="random" from="InB_WN_1" to="OutB_SW_1"/>
    <trip id="153" type="passenger" depart="76.50" departLane="best" departPos="random" departSpeed="random" from="InB_ES_1" to="OutB_WN_1"/>
    <trip id="154" type="passenger" depart="77.00" departLane="best" departPos="random" departSpeed="random" from="InB_SE_1" to="OutB_NW_1"/>
    <trip id="155" type="passenger" depart="77.50" departLane="best" departPos="random" departSpeed="random" from="InB_SE_1" to="OutB_WN_1"/>
    <trip id="156" type="passenger" depart="78.00" departLane="best" departPos="random" departSpeed="random" from="InB_NW_1" to="OutB_ES_1"/>
    <trip id="157" type="passenger" depart="78.50" departLane="best" departPos="random" departSpeed="random" from="InB_WS_1" to="OutB_NE_1"/>
    <trip id="158" type="passenger" depart="79.00" departLane="best" departPos="random" departSpeed="random" from="InB_NE_1" to="OutB_WS_1"/>
    <trip id="159" type="passenger" depart="79.50" departLane="best" departPos="random" departSpeed="random" from="InB_SW_1" to="OutB_EN_1"/>
    <trip id="160" type="passenger" depart="80.00" departLane="best" departPos="random" departSpeed="random" from="InB_NE_1" to="OutB_SE_1"/>
    <trip id="161" type="passenger" depart="80.50" departLane="best" departPos="random" departSpeed="random" from="InB_NE_1" to="OutB_EN_1"/>
    <trip id="162" type="passenger" depart="81.00" departLane="best" departPos="random" departSpeed="random" from="InB_ES_1" to="OutB_NW_1"/>
    <trip id="163" type="passenger" depart="81.50" departLane="best" departPos="random" departSpeed="random" from="InB_ES_1" to="OutB_SE_1"/>
    <trip id="164" type="passenger" depart="82.00" departLane="best" departPos="random" departSpeed="random" from="InB_NE_1" to="OutB_NE_1"/>
    <trip id="165" type="passenger" depart="82.50" departLane="best" departPos="random" departSpeed="random" from="InB_SW_1" to="OutB_WS_1"/>
    <trip id="166" type="passenger" depart="83.00" departLane="best" departPos="random" departSpeed="random" from="InB_WS_1" to="OutB_EN_1"/>
    <trip id="167" type="passenger" depart="83.50" departLane="best" departPos="random" departSpeed="random" from="InB_WS_1" to="OutB_WN_1"/>
    <trip id="168" type="passenger" depart="84.00" departLane="best" departPos="random" departSpeed="random" from="InB_ES_1" to="OutB_EN_1"/>
    <trip id="169" type="passenger" depart="84.50" departLane="best" departPos="random" departSpeed="random" from="InB_WS_1" to="OutB_SE_1"/>
    <trip id="170" type="passenger" depart="85.00" departLane="best" departPos="random" departSpeed="random" from="InB_ES_1" to="OutB_WN_1"/>
    <trip id="171" type="passenger" depart="85.50" departLane="best" departPos="random" departSpeed="random" from="InB_SE_1" to="OutB_SW_1"/>
    <trip id="172" type="passenger" depart="86.00" departLane="best" departPos="random" departSpeed="random" from="InB_WN_1" to="OutB_NE_1"/>
    <trip id="173" type="passenger" depart="86.50" departLane="best" departPos="random" departSpeed="random" from="InB_SW_1" to="OutB_WS_1"/>
    <trip id="174" type="passenger" depart="87.00" departLane="best" departPos="random" departSpeed="random" from="InB_ES_1" to="OutB_WN_1"/>
    <trip id="175" type="passenger" depart="87.50" departLane="best" departPos="random" departSpeed="random" from="InB_SE_1" to="OutB_WS_1"/>
    <trip id="176" type="passenger" depart="88.00" departLane="best" departPos="random" departSpeed="random" from="InB_SE_1" to="OutB_NW_1"/>
    <trip id="177" type="passenger" depart="88.50" departLane="best" departPos="random" departSpeed="random" from="InB_SW_1" to="OutB_ES_1"/>
    <trip id="178" type="passenger" depart="89.00" departLane="best" departPos="random" departSpeed="random" from="InB_WS_1" to="OutB_ES_1"/>
    <trip id="179" type="passenger" depart="89.50" departLane="best" departPos="random" departSpeed="random" from="InB_WN_1" to="OutB_SE_1"/>
    <trip id="180" type="passenger" depart="90.00" departLane="best" departPos="random" departSpeed="random" from="InB_WS_1" to="OutB_WN_1"/>
    <trip id="181" type="passenger" depart="90.50" departLane="best" departPos="random" departSpeed="random" from="InB_NE_1" to="OutB_NE_1"/>
    <trip id="182" type="passenger" depart="91.00" departLane="best" departPos="random" departSpeed="random" from="InB_NE_1" to="OutB_SW_1"/>
    <trip id="183" type="passenger" depart="91.50" departLane="best" departPos="random" departSpeed="random" from="InB_NE_1" to="OutB_WN_1"/>
    <trip id="184" type="passenger" depart="92.00" departLane="best" departPos="random" departSpeed="random" from="InB_ES_1" to="OutB_EN_1"/>
    <trip id="185" type="passenger" depart="92.50" departLane="best" departPos="random" departSpeed="random" from="InB_NW_1" to="OutB_WS_1"/>
    <trip id="186" type="passenger" depart="93.00" departLane="best" departPos="random" departSpeed="random" from="InB_NE_1" to="OutB_WN_1"/>
    <trip id="187" type="passenger" depart="93.50" departLane="best" departPos="random" departSpeed="random" from="InB_NW_1" to="OutB_WN_1"/>
    <trip id="188" type="passenger" depart="94.00" departLane="best" departPos="random" departSpeed="random" from="InB_WN_1" to="OutB_WS_1"/>
    <trip id="189" type="passenger" depart="94.50" departLane="best" departPos="random" departSpeed="random" from="InB_WS_1" to="OutB_NW_1"/>
    <trip id="190" type="passenger" depart="95.00" departLane="best" departPos="random" departSpeed="random" from="InB_WS_1" to="OutB_WN_1"/>
    <trip id="191" type="passenger" depart="95.50" departLane="best" departPos="random" departSpeed="random" from="InB_WS_1" to="OutB_EN_1"/>
    <trip id="192" type="passenger" depart="96.00" departLane="best" departPos="random" departSpeed="random" from="InB_EN_1" to="OutB_SE_1"/>
    <trip id="193" type="passenger" depart="96.50" departLane="best" departPos="random" departSpeed="random" from="InB_WS_1" to="OutB_WN_1"/>
    <trip id="194" type="passenger" depart="97.00" departLane="best" departPos="random" departSpeed="random" from="InB_NW_1" to="OutB_ES_1"/>
    <trip id="195" type="passenger" depart="97.50" departLane="best" departPos="random" departSpeed="random" from="InB_WN_1" to="OutB_WS_1"/>
    <trip id="196" type="passenger" depart="98.00" departLane="best" departPos="random" departSpeed="random" from="InB_NW_1" to="OutB_EN_1"/>
    <trip id="197" type="passenger" depart="98.50" departLane="best" departPos="random" departSpeed="random" from="InB_NW_1" to="OutB_NW_1"/>
    <trip id="198" type="passenger" depart="99.00" departLane="best" departPos="random" departSpeed="random" from="InB_WS_1" to="OutB_WN_1"/>
    <trip id="199" type="passenger" depart="99.50" departLane="best" departPos="random" departSpeed="random" from="InB_WS_1" to="OutB_ES_1"/>
    <trip id="200" type="passenger" depart="100.00" departLane="best" departPos="random" departSpeed="random" from="InB_WN_1" to="OutB_WS_1"/>
    <trip id="201" type="passenger" depart="100.50" departLane="best" departPos="random" departSpeed="random" from="InB_NE_1" to="OutB_NE_1"/>
    <trip id="202" type="passenger" depart="101.00" departLane="best" departPos="random" departSpeed="random" from="InB_NE_1" to="OutB_ES_1"/>
    <trip id="203" type="passenger" depart="101.50" departLane="best" departPos="random" departSpeed="random" from="InB_NE_1" to="OutB_ES_1"/>
    <trip id="204" type="passenger" depart="102.00" departLane="best" departPos="random" departSpeed="random" from="InB_SW_1" to="OutB_ES_1"/>