<?xml version="1.0" encoding="UTF-8"?>
<routes xmlns:xsi="http://www.w3.org/2001/XMLSchema-instance" xsi:noNamespaceSchemaLocation="http://sumo.dlr.de/xsd/routes_file.xsd">
    <vehicle id="0" depart="0.00" departLane="best" departPos="random" departSpeed="max">
        <route edges="gneE43 gneE3 gneE12 gneE32"/>
    </vehicle>
    <vehicle id="1" depart="2.50" departLane="best" departPos="random" departSpeed="max">
        <route edges="gneE43 gneE3 gneE12 gneE32"/>
    </vehicle>
    <vehicle id="2" depart="5.00" departLane="best" departPos="random" departSpeed="max">
        <route edges="gneE43 gneE3 gneE12 gneE32"/>
    </vehicle>
    <vehicle id="3" depart="7.50" departLane="best" departPos="random" departSpeed="max">
        <route edges="gneE33 gneE13 gneE10 gneE34"/>
    </vehicle>
    <vehicle id="4" depart="10.00" departLane="best" departPos="random" departSpeed="max">
        <route edges="gneE35 gneE11 gneE6 gneE40"/>
    </vehicle>
    <vehicle id="5" depart="12.50" departLane="best" departPos="random" departSpeed="max">
        <route edges="gneE41 gneE7 gneE10 gneE11 gneE6 gneE40"/>
    </vehicle>
    <vehicle id="6" depart="15.00" departLane="best" departPos="random" departSpeed="max">
        <route edges="gneE43 gneE3 gneE12 gneE13 gneE8 gneE42"/>
    </vehicle>
    <vehicle id="7" depart="17.50" departLane="best" departPos="random" departSpeed="max">
        <route edges="gneE33 gneE13 gneE8 gneE42"/>
    </vehicle>
    <vehicle id="8" depart="20.00" departLane="best" departPos="random" departSpeed="max">
        <route edges="gneE43 gneE3 gneE12 gneE13 gneE8 gneE42"/>
    </vehicle>
    <vehicle id="9" depart="22.50" departLane="best" departPos="random" departSpeed="max">
        <route edges="gneE43 gneE3 gneE12 gneE32"/>
    </vehicle>
    <vehicle id="10" depart="25.00" departLane="best" departPos="random" departSpeed="max">
        <route edges="gneE33 gneE13 gneE8 gneE3 gneE12 gneE32"/>
    </vehicle>
    <vehicle id="11" depart="27.50" departLane="best" departPos="random" departSpeed="max">
        <route edges="gneE41 gneE7 gneE8 gneE42"/>
    </vehicle>
    <vehicle id="12" depart="30.00" departLane="best" departPos="random" departSpeed="max">
        <route edges="gneE33 gneE13 gneE10 gneE34"/>
    </vehicle>
    <vehicle id="13" depart="32.50" departLane="best" departPos="random" departSpeed="max">
        <route edges="gneE33 gneE13 gneE10 gneE34"/>
    </vehicle>
    <vehicle id="14" depart="35.00" departLane="best" departPos="random" departSpeed="max">
        <route edges="gneE43 gneE3 gneE6 gneE40"/>
    </vehicle>
    <vehicle id="15" depart="37.50" departLane="best" departPos="random" departSpeed="max">
        <route edges="gneE33 gneE13 gneE8 gneE3 gneE12 gneE32"/>
    </vehicle>
    <vehicle id="16" depart="40.00" departLane="best" departPos="random" departSpeed="max">
        <route edges="gneE43 gneE3 gneE12 gneE13 gneE8 gneE42"/>
    </vehicle>
    <vehicle id="17" depart="42.50" departLane="best" departPos="random" departSpeed="max">
        <route edges="gneE43 gneE3 gneE12 gneE13 gneE8 gneE42"/>
    </vehicle>
    <vehicle id="18" depart="45.00" departLane="best" departPos="random" departSpeed="max">
        <route edges="gneE43 gneE3 gneE6 gneE40"/>
    </vehicle>
    <vehicle id="19" depart="47.50" departLane="best" departPos="random" departSpeed="max">
        <route edges="gneE35 gneE11 gneE6 gneE7 gneE10 gneE34"/>
    </vehicle>
    <vehicle id="20" depart="50.00" departLane="best" departPos="random" departSpeed="max">
        <route edges="gneE41 gneE7 gneE10 gneE11 gneE6 gneE40"/>
    </vehicle>
    <vehicle id="21" depart="52.50" departLane="best" departPos="random" departSpeed="max">
        <route edges="gneE41 gneE7 gneE12 gneE32"/>
    </vehicle>
    <vehicle id="22" depart="55.00" departLane="best" departPos="random" departSpeed="max">
        <route edges="gneE35 gneE11 gneE8 gneE42"/>
    </vehicle>
    <vehicle id="23" depart="57.50" departLane="best" departPos="random" departSpeed="max">
        <route edges="gneE43 gneE3 gneE12 gneE13 gneE8 gneE42"/>
    </vehicle>
    <vehicle id="24" depart="60.00" departLane="best" departPos="random" departSpeed="max">
        <route edges="gneE41 gneE7 gneE12 gneE32"/>
    </vehicle>
    <vehicle id="25" depart="62.50" departLane="best" departPos="random" departSpeed="max">
        <route edges="gneE33 gneE13 gneE8 gneE3 gneE12 gneE32"/>
    </vehicle>
    <vehicle id="26" depart="65.00" departLane="best" departPos="random" departSpeed="max">
        <route edges="gneE41 gneE7 gneE10 gneE34"/>
    </vehicle>
    <vehicle id="27" depart="67.50" departLane="best" departPos="random" departSpeed="max">
        <route edges="gneE43 gneE3 gneE12 gneE13 gneE8 gneE42"/>
    </vehicle>
    <vehicle id="28" depart="70.00" departLane="best" departPos="random" departSpeed="max">
        <route edges="gneE33 gneE13 gneE8 gneE3 gneE12 gneE32"/>
    </vehicle>
    <vehicle id="29" depart="72.50" departLane="best" departPos="random" departSpeed="max">
        <route edges="gneE33 gneE13 gneE6 gneE40"/>
    </vehicle>
    <vehicle id="30" depart="75.00" departLane="best" departPos="random" departSpeed="max">
        <route edges="gneE35 gneE11 gneE8 gneE42"/>
    </vehicle>
    <vehicle id="31" depart="77.50" departLane="best" departPos="random" departSpeed="max">
        <route edges="gneE33 gneE13 gneE8 gneE42"/>
    </vehicle>
    <vehicle id="32" depart="80.00" departLane="best" departPos="random" departSpeed="max">
        <route edges="gneE33 gneE13 gneE8 gneE42"/>
    </vehicle>
    <vehicle id="33" depart="82.50" departLane="best" departPos="random" departSpeed="max">
        <route edges="gneE43 gneE3 gneE10 gneE34"/>
    </vehicle>
    <vehicle id="34" depart="85.00" departLane="best" departPos="random" departSpeed="max">
        <route edges="gneE33 gneE13 gneE10 gneE34"/>
    </vehicle>
    <vehicle id="35" depart="87.50" departLane="best" departPos="random" departSpeed="max">
        <route edges="gneE41 gneE7 gneE10 gneE34"/>
    </vehicle>
    <vehicle id="36" depart="90.00" departLane="best" departPos="random" departSpeed="max">
        <route edges="gneE41 gneE7 gneE10 gneE11 gneE6 gneE40"/>
    </vehicle>
    <vehicle id="37" depart="92.50" departLane="best" departPos="random" departSpeed="max">
        <route edges="gneE41 gneE7 gneE8 gneE42"/>
    </vehicle>
    <vehicle id="38" depart="95.00" departLane="best" departPos="random" departSpeed="max">
        <route edges="gneE33 gneE13 gneE6 gneE40"/>
    </vehicle>
    <vehicle id="39" depart="97.50" departLane="best" departPos="random" departSpeed="max">
        <route edges="gneE35 gneE11 gneE6 gneE7 gneE10 gneE34"/>
    </vehicle>
    <vehicle id="40" depart="100.00" departLane="best" departPos="random" departSpeed="max">
        <route edges="gneE33 gneE13 gneE8 gneE42"/>
    </vehicle>
    <vehicle id="41" depart="102.50" departLane="best" departPos="random" departSpeed="max">
        <route edges="gneE33 gneE13 gneE10 gneE34"/>
    </vehicle>
    <vehicle id="42" depart="105.00" departLane="best" departPos="random" departSpeed="max">
        <route edges="gneE33 gneE13 gneE8 gneE42"/>
    </vehicle>
    <vehicle id="43" depart="107.50" departLane="best" departPos="random" departSpeed="max">
        <route edges="gneE33 gneE13 gneE10 gneE34"/>
    </vehicle>
    <vehicle id="44" depart="110.00" departLane="best" departPos="random" departSpeed="max">
        <route edges="gneE33 gneE13 gneE10 gneE34"/>
    </vehicle>
    <vehicle id="45" depart="112.50" departLane="best" departPos="random" departSpeed="max">
        <route edges="gneE43 gneE3 gneE12 gneE13 gneE8 gneE42"/>
    </vehicle>
    <vehicle id="46" depart="115.00" departLane="best" departPos="random" departSpeed="max">
        <route edges="gneE43 gneE3 gneE6 gneE40"/>
    </vehicle>
    <vehicle id="47" depart="117.50" departLane="best" departPos="random" departSpeed="max">
        <route edges="gneE35 gneE11 gneE6 gneE7 gneE10 gneE34"/>
    </vehicle>
    <vehicle id="48" depart="120.00" departLane="best" departPos="random" departSpeed="max">
        <route edges="gneE41 gneE7 gneE10 gneE34"/>
    </vehicle>
    <vehicle id="49" depart="122.50" departLane="best" departPos="random" departSpeed="max">
        <route edges="gneE43 gneE3 gneE6 gneE40"/>
    </vehicle>
    <vehicle id="50" depart="125.00" departLane="best" departPos="random" departSpeed="max">
        <route edges="gneE33 gneE13 gneE10 gneE34"/>
    </vehicle>
    <vehicle id="51" depart="127.50" departLane="best" departPos="random" departSpeed="max">
        <route edges="gneE35 gneE11 gneE8 gneE42"/>
    </vehicle>
    <vehicle id="52" depart="130.00" departLane="best" departPos="random" departSpeed="max">
        <route edges="gneE35 gneE11 gneE12 gneE32"/>
    </vehicle>
    <vehicle id="53" depart="132.50" departLane="best" departPos="random" departSpeed="max">
        <route edges="gneE43 gneE3 gneE12 gneE32"/>
    </vehicle>
    <vehicle id="54" depart="135.00" departLane="best" departPos="random" departSpeed="max">
        <route edges="gneE35 gneE11 gneE6 gneE40"/>
    </vehicle>
    <vehicle id="55" depart="137.50" departLane="best" departPos="random" departSpeed="max">
        <route edges="gneE35 gneE11 gneE6 gneE7 gneE10 gneE34"/>
    </vehicle>
    <vehicle id="56" depart="140.00" departLane="best" departPos="random" departSpeed="max">
        <route edges="gneE41 gneE7 gneE10 gneE34"/>
    </vehicle>
    <vehicle id="57" depart="142.50" departLane="best" departPos="random" departSpeed="max">
        <route edges="gneE33 gneE13 gneE6 gneE40"/>
    </vehicle>
    <vehicle id="58" depart="145.00" departLane="best" departPos="random" departSpeed="max">
        <route edges="gneE41 gneE7 gneE10 gneE11 gneE6 gneE40"/>
    </vehicle>
    <vehicle id="59" depart="147.50" departLane="best" departPos="random" departSpeed="max">
        <route edges="gneE35 gneE11 gneE8 gneE42"/>
    </vehicle>
    <vehicle id="60" depart="150.00" departLane="best" departPos="random" departSpeed="max">
        <route edges="gneE43 gneE3 gneE10 gneE34"/>
    </vehicle>
    <vehicle id="61" depart="152.50" departLane="best" departPos="random" departSpeed="max">
        <route edges="gneE33 gneE13 gneE10 gneE34"/>
    </vehicle>
    <vehicle id="62" depart="155.00" departLane="best" departPos="random" departSpeed="max">
        <route edges="gneE41 gneE7 gneE12 gneE32"/>
    </vehicle>
    <vehicle id="63" depart="157.50" departLane="best" departPos="random" departSpeed="max">
        <route edges="gneE41 gneE7 gneE10 gneE34"/>
    </vehicle>
    <vehicle id="64" depart="160.00" departLane="best" departPos="random" departSpeed="max">
        <route edges="gneE35 gneE11 gneE8 gneE42"/>
    </vehicle>
    <vehicle id="65" depart="162.50" departLane="best" departPos="random" departSpeed="max">
        <route edges="gneE35 gneE11 gneE6 gneE7 gneE10 gneE34"/>
    </vehicle>
    <vehicle id="66" depart="165.00" departLane="best" departPos="random" departSpeed="max">
        <route edges="gneE35 gneE11 gneE12 gneE32"/>
    </vehicle>
    <vehicle id="67" depart="167.50" departLane="best" departPos="random" departSpeed="max">
        <route edges="gneE43 gneE3 gneE10 gneE34"/>
    </vehicle>
    <vehicle id="68" depart="170.00" departLane="best" departPos="random" departSpeed="max">
        <route edges="gneE43 gneE3 gneE12 gneE32"/>
    </vehicle>
    <vehicle id="69" depart="172.50" departLane="best" departPos="random" departSpeed="max">
        <route edges="gneE43 gneE3 gneE6 gneE40"/>
    </vehicle>
    <vehicle id="70" depart="175.00" departLane="best" departPos="random" departSpeed="max">
        <route edges="gneE41 gneE7 gneE10 gneE11 gneE6 gneE40"/>
    </vehicle>
    <vehicle id="71" depart="177.50" departLane="best" departPos="random" departSpeed="max">
        <route edges="gneE43 gneE3 gneE10 gneE34"/>
    </vehicle>
    <vehicle id="72" depart="180.00" departLane="best" departPos="random" departSpeed="max">
        <route edges="gneE41 gneE7 gneE12 gneE32"/>
    </vehicle>
    <vehicle id="73" depart="182.50" departLane="best" departPos="random" departSpeed="max">
        <route edges="gneE43 gneE3 gneE12 gneE13 gneE8 gneE42"/>
    </vehicle>
    <vehicle id="74" depart="185.00" departLane="best" departPos="random" departSpeed="max">
        <route edges="gneE41 gneE7 gneE10 gneE34"/>
    </vehicle>
    <vehicle id="75" depart="187.50" departLane="best" departPos="random" departSpeed="max">
        <route edges="gneE43 gneE3 gneE10 gneE34"/>
    </vehicle>
    <vehicle id="76" depart="190.00" departLane="best" departPos="random" departSpeed="max">
        <route edges="gneE35 gneE11 gneE12 gneE32"/>
    </vehicle>
    <vehicle id="77" depart="192.50" departLane="best" departPos="random" departSpeed="max">
        <route edges="gneE35 gneE11 gneE6 gneE7 gneE10 gneE34"/>
    </vehicle>
    <vehicle id="78" depart="195.00" departLane="best" departPos="random" departSpeed="max">
        <route edges="gneE43 gneE3 gneE12 gneE32"/>
    </vehicle>
    <vehicle id="79" depart="197.50" departLane="best" departPos="random" departSpeed="max">
        <route edges="gneE35 gneE11 gneE12 gneE32"/>
    </vehicle>
    <vehicle id="80" depart="200.00" departLane="best" departPos="random" departSpeed="max">
        <route edges="gneE35 gneE11 gneE12 gneE32"/>
    </vehicle>
    <vehicle id="81" depart="202.50" departLane="best" departPos="random" departSpeed="max">
        <route edges="gneE43 gneE3 gneE12 gneE32"/>
    </vehicle>
    <vehicle id="82" depart="205.00" departLane="best" departPos="random" departSpeed="max">
        <route edges="gneE43 gneE3 gneE6 gneE40"/>
    </vehicle>
    <vehicle id="83" depart="207.50" departLane="best" departPos="random" departSpeed="max">
        <route edges="gneE43 gneE3 gneE10 gneE34"/>
    </vehicle>
    <vehicle id="84" depart="210.00" departLane="best" departPos="random" departSpeed="max">
        <route edges="gneE33 gneE13 gneE6 gneE40"/>
    </vehicle>
    <vehicle id="85" depart="212.50" departLane="best" departPos="random" departSpeed="max">
        <route edges="gneE43 gneE3 gneE12 gneE13 gneE8 gneE42"/>
    </vehicle>
    <vehicle id="86" depart="215.00" departLane="best" departPos="random" departSpeed="max">
        <route edges="gneE43 gneE3 gneE12 gneE32"/>
    </vehicle>
    <vehicle id="87" depart="217.50" departLane="best" departPos="random" departSpeed="max">
        <route edges="gneE33 gneE13 gneE6 gneE40"/>
    </vehicle>
    <vehicle id="88" depart="220.00" departLane="best" departPos="random" departSpeed="max">
        <route edges="gneE43 gneE3 gneE6 gneE40"/>
    </vehicle>
    <vehicle id="89" depart="222.50" departLane="best" departPos="random" departSpeed="max">
        <route edges="gneE35 gneE11 gneE8 gneE42"/>
    </vehicle>
    <vehicle id="90" depart="225.00" departLane="best" departPos="random" departSpeed="max">
        <route edges="gneE43 gneE3 gneE10 gneE34"/>
    </vehicle>
    <vehicle id="91" depart="227.50" departLane="best" departPos="random" departSpeed="max">
        <route edges="gneE33 gneE13 gneE8 gneE3 gneE12 gneE32"/>
    </vehicle>
    <vehicle id="92" depart="230.00" departLane="best" departPos="random" departSpeed="max">
        <route edges="gneE43 gneE3 gneE12 gneE32"/>
    </vehicle>
    <vehicle id="93" depart="232.50" departLane="best" departPos="random" departSpeed="max">
        <route edges="gneE41 gneE7 gneE12 gneE32"/>
    </vehicle>
    <vehicle id="94" depart="235.00" departLane="best" departPos="random" departSpeed="max">
        <route edges="gneE43 gneE3 gneE6 gneE40"/>
    </vehicle>
    <vehicle id="95" depart="237.50" departLane="best" departPos="random" departSpeed="max">
        <route edges="gneE33 gneE13 gneE8 gneE3 gneE12 gneE32"/>
    </vehicle>
    <vehicle id="96" depart="240.00" departLane="best" departPos="random" departSpeed="max">
        <route edges="gneE35 gneE11 gneE6 gneE40"/>
    </vehicle>
    <vehicle id="97" depart="242.50" departLane="best" departPos="random" departSpeed="max">
        <route edges="gneE41 gneE7 gneE12 gneE32"/>
    </vehicle>
    <vehicle id="98" depart="245.00" departLane="best" departPos="random" departSpeed="max">
        <route edges="gneE43 gneE3 gneE10 gneE34"/>
    </vehicle>
    <vehicle id="99" depart="247.50" departLane="best" departPos="random" departSpeed="max">
        <route edges="gneE41 gneE7 gneE10 gneE34"/>
    </vehicle>
    <vehicle id="100" depart="250.00" departLane="best" departPos="random" departSpeed="max">
        <route edges="gneE35 gneE11 gneE6 gneE7 gneE10 gneE34"/>
    </vehicle>
    <vehicle id="101" depart="252.50" departLane="best" departPos="random" departSpeed="max">
        <route edges="gneE43 gneE3 gneE10 gneE34"/>
    </vehicle>
    <vehicle id="102" depart="255.00" departLane="best" departPos="random" departSpeed="max">
        <route edges="gneE41 gneE7 gneE10 gneE11 gneE6 gneE40"/>
    </vehicle>
    <vehicle id="103" depart="257.50" departLane="best" departPos="random" departSpeed="max">
        <route edges="gneE41 gneE7 gneE10 gneE34"/>
    </vehicle>
    <vehicle id="104" depart="260.00" departLane="best" departPos="random" departSpeed="max">
        <route edges="gneE41 gneE7 gneE8 gneE42"/>
    </vehicle>
    <vehicle id="105" depart="262.50" departLane="best" departPos="random" departSpeed="max">
        <route edges="gneE41 gneE7 gneE8 gneE42"/>
    </vehicle>
    <vehicle id="106" depart="265.00" departLane="best" departPos="random" departSpeed="max">
        <route edges="gneE41 gneE7 gneE8 gneE42"/>
    </vehicle>
    <vehicle id="107" depart="267.50" departLane="best" departPos="random" departSpeed="max">
        <route edges="gneE35 gneE11 gneE12 gneE32"/>
    </vehicle>
    <vehicle id="108" depart="270.00" departLane="best" departPos="random" departSpeed="max">
        <route edges="gneE33 gneE13 gneE8 gneE3 gneE12 gneE32"/>
    </vehicle>
    <vehicle id="109" depart="272.50" departLane="best" departPos="random" departSpeed="max">
        <route edges="gneE35 gneE11 gneE12 gneE32"/>
    </vehicle>
    <vehicle id="110" depart="275.00" departLane="best" departPos="random" departSpeed="max">
        <route edges="gneE43 gneE3 gneE12 gneE13 gneE8 gneE42"/>
    </vehicle>
    <vehicle id="111" depart="277.50" departLane="best" departPos="random" departSpeed="max">
        <route edges="gneE43 gneE3 gneE12 gneE32"/>
    </vehicle>
    <vehicle id="112" depart="280.00" departLane="best" departPos="random" departSpeed="max">
        <route edges="gneE43 gneE3 gneE12 gneE13 gneE8 gneE42"/>
    </vehicle>
    <vehicle id="113" depart="282.50" departLane="best" departPos="random" departSpeed="max">
        <route edges="gneE35 gneE11 gneE12 gneE32"/>
    </vehicle>
    <vehicle id="114" depart="285.00" departLane="best" departPos="random" departSpeed="max">
        <route edges="gneE43 gneE3 gneE10 gneE34"/>
    </vehicle>
    <vehicle id="115" depart="287.50" departLane="best" departPos="random" departSpeed="max">
        <route edges="gneE43 gneE3 gneE10 gneE34"/>
    </vehicle>
    <vehicle id="116" depart="290.00" departLane="best" departPos="random" departSpeed="max">
        <route edges="gneE43 gneE3 gneE12 gneE32"/>
    </vehicle>
    <vehicle id="117" depart="292.50" departLane="best" departPos="random" departSpeed="max">
        <route edges="gneE43 gneE3 gneE6 gneE40"/>
    </vehicle>
    <vehicle id="118" depart="295.00" departLane="best" departPos="random" departSpeed="max">
        <route edges="gneE43 gneE3 gneE12 gneE13 gneE8 gneE42"/>
    </vehicle>
    <vehicle id="119" depart="297.50" departLane="best" departPos="random" departSpeed="max">
        <route edges="gneE43 gneE3 gneE6 gneE40"/>
    </vehicle>
    <vehicle id="120" depart="300.00" departLane="best" departPos="random" departSpeed="max">
        <route edges="gneE41 gneE7 gneE8 gneE42"/>
    </vehicle>
    <vehicle id="121" depart="302.50" departLane="best" departPos="random" departSpeed="max">
        <route edges="gneE43 gneE3 gneE10 gneE34"/>
    </vehicle>
    <vehicle id="122" depart="305.00" departLane="best" departPos="random" departSpeed="max">
        <route edges="gneE33 gneE13 gneE8 gneE3 gneE12 gneE32"/>
    </vehicle>
    <vehicle id="123" depart="307.50" departLane="best" departPos="random" departSpeed="max">
        <route edges="gneE33 gneE13 gneE10 gneE34"/>
    </vehicle>
    <vehicle id="124" depart="310.00" departLane="best" departPos="random" departSpeed="max">
        <route edges="gneE43 gneE3 gneE6 gneE40"/>
    </vehicle>
    <vehicle id="125" depart="312.50" departLane="best" departPos="random" departSpeed="max">
        <route edges="gneE33 gneE13 gneE10 gneE34"/>
    </vehicle>
    <vehicle id="126" depart="315.00" departLane="best" departPos="random" departSpeed="max">
        <route edges="gneE43 gneE3 gneE12 gneE13 gneE8 gneE42"/>
    </vehicle>
    <vehicle id="127" depart="317.50" departLane="best" departPos="random" departSpeed="max">
        <route edges="gneE33 gneE13 gneE10 gneE34"/>
    </vehicle>
    <vehicle id="128" depart="320.00" departLane="best" departPos="random" departSpeed="max">
        <route edges="gneE41 gneE7 gneE12 gneE32"/>
    </vehicle>
    <vehicle id="129" depart="322.50" departLane="best" departPos="random" departSpeed="max">
        <route edges="gneE43 gneE3 gneE6 gneE40"/>
    </vehicle>
    <vehicle id="130" depart="325.00" departLane="best" departPos="random" departSpeed="max">
        <route edges="gneE43 gneE3 gneE10 gneE34"/>
    </vehicle>
    <vehicle id="131" depart="327.50" departLane="best" departPos="random" departSpeed="max">
        <route edges="gneE33 gneE13 gneE8 gneE3 gneE12 gneE32"/>
    </vehicle>
    <vehicle id="132" depart="330.00" departLane="best" departPos="random" departSpeed="max">
        <route edges="gneE41 gneE7 gneE10 gneE34"/>
    </vehicle>
    <vehicle id="133" depart="332.50" departLane="best" departPos="random" departSpeed="max">
        <route edges="gneE41 gneE7 gneE10 gneE11 gneE6 gneE40"/>
    </vehicle>
    <vehicle id="134" depart="335.00" departLane="best" departPos="random" departSpeed="max">
        <route edges="gneE35 gneE11 gneE8 gneE42"/>
    </vehicle>
    <vehicle id="135" depart="337.50" departLane="best" departPos="random" departSpeed="max">
        <route edges="gneE35 gneE11 gneE6 gneE40"/>
    </vehicle>
    <vehicle id="136" depart="340.00" departLane="best" departPos="random" departSpeed="max">
        <route edges="gneE41 gneE7 gneE10 gneE11 gneE6 gneE40"/>
    </vehicle>
    <vehicle id="137" depart="342.50" departLane="best" departPos="random" departSpeed="max">
        <route edges="gneE41 gneE7 gneE10 gneE11 gneE6 gneE40"/>
    </vehicle>
    <vehicle id="138" depart="345.00" departLane="best" departPos="random" departSpeed="max">
        <route edges="gneE43 gneE3 gneE12 gneE13 gneE8 gneE42"/>
    </vehicle>
    <vehicle id="139" depart="347.50" departLane="best" departPos="random" departSpeed="max">
        <route edges="gneE35 gneE11 gneE6 gneE40"/>
    </vehicle>
    <vehicle id="140" depart="350.00" departLane="best" departPos="random" departSpeed="max">
        <route edges="gneE41 gneE7 gneE10 gneE34"/>
    </vehicle>
    <vehicle id="141" depart="352.50" departLane="best" departPos="random" departSpeed="max">
        <route edges="gneE41 gneE7 gneE12 gneE32"/>
    </vehicle>
    <vehicle id="142" depart="355.00" departLane="best" departPos="random" departSpeed="max">
        <route edges="gneE35 gneE11 gneE6 gneE7 gneE10 gneE34"/>
    </vehicle>
    <vehicle id="143" depart="357.50" departLane="best" departPos="random" departSpeed="max">
        <route edges="gneE43 gneE3 gneE12 gneE13 gneE8 gneE42"/>
    </vehicle>
    <vehicle id="144" depart="360.00" departLane="best" departPos="random" departSpeed="max">
        <route edges="gneE43 gneE3 gneE12 gneE32"/>
    </vehicle>
    <vehicle id="145" depart="362.50" departLane="best" departPos="random" departSpeed="max">
        <route edges="gneE35 gneE11 gneE8 gneE42"/>
    </vehicle>
    <vehicle id="146" depart="365.00" departLane="best" departPos="random" departSpeed="max">
        <route edges="gneE41 gneE7 gneE8 gneE42"/>
    </vehicle>
    <vehicle id="147" depart="367.50" departLane="best" departPos="random" departSpeed="max">
        <route edges="gneE33 gneE13 gneE6 gneE40"/>
    </vehicle>
    <vehicle id="148" depart="370.00" departLane="best" departPos="random" departSpeed="max">
        <route edges="gneE33 gneE13 gneE8 gneE3 gneE12 gneE32"/>
    </vehicle>
    <vehicle id="149" depart="372.50" departLane="best" departPos="random" departSpeed="max">
        <route edges="gneE35 gneE11 gneE12 gneE32"/>
    </vehicle>
    <vehicle id="150" depart="375.00" departLane="best" departPos="random" departSpeed="max">
        <route edges="gneE33 gneE13 gneE10 gneE34"/>
    </vehicle>
    <vehicle id="151" depart="377.50" departLane="best" departPos="random" departSpeed="max">
        <route edges="gneE35 gneE11 gneE6 gneE40"/>
    </vehicle>
    <vehicle id="152" depart="380.00" departLane="best" departPos="random" departSpeed="max">
        <route edges="gneE33 gneE13 gneE8 gneE3 gneE12 gneE32"/>
    </vehicle>
    <vehicle id="153" depart="382.50" departLane="best" departPos="random" departSpeed="max">
        <route edges="gneE33 gneE13 gneE6 gneE40"/>
    </vehicle>
    <vehicle id="154" depart="385.00" departLane="best" departPos="random" departSpeed="max">
        <route edges="gneE33 gneE13 gneE8 gneE3 gneE12 gneE32"/>
    </vehicle>
    <vehicle id="155" depart="387.50" departLane="best" departPos="random" departSpeed="max">
        <route edges="gneE41 gneE7 gneE12 gneE32"/>
    </vehicle>
    <vehicle id="156" depart="390.00" departLane="best" departPos="random" departSpeed="max">
        <route edges="gneE41 gneE7 gneE10 gneE34"/>
    </vehicle>
    <vehicle id="157" depart="392.50" departLane="best" departPos="random" departSpeed="max">
        <route edges="gneE43 gneE3 gneE10 gneE34"/>
    </vehicle>
    <vehicle id="158" depart="395.00" departLane="best" departPos="random" departSpeed="max">
        <route edges="gneE43 gneE3 gneE10 gneE34"/>
    </vehicle>
    <vehicle id="159" depart="397.50" departLane="best" departPos="random" departSpeed="max">
        <route edges="gneE43 gneE3 gneE12 gneE32"/>
    </vehicle>
    <vehicle id="160" depart="400.00" departLane="best" departPos="random" departSpeed="max">
        <route edges="gneE41 gneE7 gneE8 gneE42"/>
    </vehicle>
    <vehicle id="161" depart="402.50" departLane="best" departPos="random" departSpeed="max">
        <route edges="gneE43 gneE3 gneE12 gneE13 gneE8 gneE42"/>
    </vehicle>
    <vehicle id="162" depart="405.00" departLane="best" departPos="random" departSpeed="max">
        <route edges="gneE35 gneE11 gneE6 gneE40"/>
    </vehicle>
    <vehicle id="163" depart="407.50" departLane="best" departPos="random" departSpeed="max">
        <route edges="gneE35 gneE11 gneE8 gneE42"/>
    </vehicle>
    <vehicle id="164" depart="410.00" departLane="best" departPos="random" departSpeed="max">
        <route edges="gneE33 gneE13 gneE8 gneE3 gneE12 gneE32"/>
    </vehicle>
    <vehicle id="165" depart="412.50" departLane="best" departPos="random" departSpeed="max">
        <route edges="gneE35 gneE11 gneE6 gneE7 gneE10 gneE34"/>
    </vehicle>
    <vehicle id="166" depart="415.00" departLane="best" departPos="random" departSpeed="max">
        <route edges="gneE33 gneE13 gneE8 gneE3 gneE12 gneE32"/>
    </vehicle>
    <vehicle id="167" depart="417.50" departLane="best" departPos="random" departSpeed="max">
        <route edges="gneE43 gneE3 gneE6 gneE40"/>
    </vehicle>
    <vehicle id="168" depart="420.00" departLane="best" departPos="random" departSpeed="max">
        <route edges="gneE35 gneE11 gneE6 gneE7 gneE10 gneE34"/>
    </vehicle>
    <vehicle id="169" depart="422.50" departLane="best" departPos="random" departSpeed="max">
        <route edges="gneE35 gneE11 gneE6 gneE40"/>
    </vehicle>
    <vehicle id="170" depart="425.00" departLane="best" departPos="random" departSpeed="max">
        <route edges="gneE43 gneE3 gneE10 gneE34"/>
    </vehicle>
    <vehicle id="171" depart="427.50" departLane="best" departPos="random" departSpeed="max">
        <route edges="gneE41 gneE7 gneE10 gneE34"/>
    </vehicle>
    <vehicle id="172" depart="430.00" departLane="best" departPos="random" departSpeed="max">
        <route edges="gneE43 gneE3 gneE12 gneE32"/>
    </vehicle>
    <vehicle id="173" depart="432.50" departLane="best" departPos="random" departSpeed="max">
        <route edges="gneE43 gneE3 gneE10 gneE34"/>
    </vehicle>
    <vehicle id="174" depart="435.00" departLane="best" departPos="random" departSpeed="max">
        <route edges="gneE41 gneE7 gneE10 gneE11 gneE6 gneE40"/>
    </vehicle>
    <vehicle id="175" depart="437.50" departLane="best" departPos="random" departSpeed="max">
        <route edges="gneE33 gneE13 gneE10 gneE34"/>
    </vehicle>
    <vehicle id="176" depart="440.00" departLane="best" departPos="random" departSpeed="max">
        <route edges="gneE35 gneE11 gneE6 gneE40"/>
    </vehicle>
    <vehicle id="177" depart="442.50" departLane="best" departPos="random" departSpeed="max">
        <route edges="gneE33 gneE13 gneE10 gneE34"/>
    </vehicle>
    <vehicle id="178" depart="445.00" departLane="best" departPos="random" departSpeed="max">
        <route edges="gneE41 gneE7 gneE12 gneE32"/>
    </vehicle>
    <vehicle id="179" depart="447.50" departLane="best" departPos="random" departSpeed="max">
        <route edges="gneE35 gneE11 gneE12 gneE32"/>
    </vehicle>
    <vehicle id="180" depart="450.00" departLane="best" departPos="random" departSpeed="max">
        <route edges="gneE33 gneE13 gneE8 gneE42"/>
    </vehicle>
    <vehicle id="181" depart="452.50" departLane="best" departPos="random" departSpeed="max">
        <route edges="gneE43 gneE3 gneE12 gneE13 gneE8 gneE42"/>
    </vehicle>