<?xml version="1.0" encoding="UTF-8"?>

<!-- generated on 09/08/20 10:18:52 by Eclipse SUMO netedit Version 1.6.0
<configuration xmlns:xsi="http://www.w3.org/2001/XMLSchema-instance" xsi:noNamespaceSchemaLocation="http://sumo.dlr.de/xsd/netconvertConfiguration.xsd">

    <input>
        <sumo-net-file value="D:\Picasso\kmitl%20ce4\Project\Map\64cross_TLS\4_4Cross.net.xml"/>
    </input>

    <output>
        <output-file value="D:\Picasso\kmitl%20ce4\Project\Map\64cross_TLS\4_4Cross.net.xml"/>
    </output>

    <processing>
        <geometry.min-radius.fix.railways value="false"/>
        <geometry.max-grade.fix value="false"/>
        <offset.disable-normalization value="true"/>
        <lefthand value="true"/>
    </processing>

    <junctions>
        <no-turnarounds value="true"/>
        <junctions.corner-detail value="5"/>
        <junctions.limit-turn-speed value="5.5"/>
        <rectangular-lane-cut value="false"/>
    </junctions>

    <pedestrian>
        <walkingareas value="false"/>
    </pedestrian>

    <report>
        <aggregate-warnings value="5"/>
    </report>

</configuration>
-->

<net version="1.6" junctionCornerDetail="5" lefthand="true" limitTurnSpeed="5.50" xmlns:xsi="http://www.w3.org/2001/XMLSchema-instance" xsi:noNamespaceSchemaLocation="http://sumo.dlr.de/xsd/net_file.xsd">

    <location netOffset="0.00,0.00" convBoundary="-500.00,-3300.00,3500.00,700.00" origBoundary="-10000000000.00,-10000000000.00,10000000000.00,10000000000.00" projParameter="!"/>

    <edge id=":gneJ10_0" function="internal">
        <lane id=":gneJ10_0_0" index="0" speed="13.89" length="0.10" shape="-4.80,680.00 -4.80,680.00"/>
        <lane id=":gneJ10_0_1" index="1" speed="13.89" length="0.10" shape="-1.60,680.00 -1.60,680.00"/>
    </edge>
    <edge id=":gneJ10_2" function="internal">
        <lane id=":gneJ10_2_0" index="0" speed="3.65" length="2.34" shape="-1.60,680.00 -0.80,681.20 0.00,681.60"/>
    </edge>
    <edge id=":gneJ10_5" function="internal">
        <lane id=":gneJ10_5_0" index="0" speed="3.65" length="2.34" shape="0.00,681.60 0.80,681.20 1.60,680.00"/>
    </edge>
    <edge id=":gneJ10_3" function="internal">
        <lane id=":gneJ10_3_0" index="0" speed="13.89" length="0.10" shape="4.80,680.00 4.80,680.00"/>
        <lane id=":gneJ10_3_1" index="1" speed="13.89" length="0.10" shape="1.60,680.00 1.60,680.00"/>
    </edge>
    <edge id=":gneJ101_0" function="internal">
        <lane id=":gneJ101_0_0" index="0" speed="13.89" length="0.10" shape="1500.00,-2804.80 1500.00,-2804.80"/>
        <lane id=":gneJ101_0_1" index="1" speed="13.89" length="0.10" shape="1500.00,-2801.60 1500.00,-2801.60"/>
    </edge>
    <edge id=":gneJ101_2" function="internal">
        <lane id=":gneJ101_2_0" index="0" speed="3.65" length="2.34" shape="1500.00,-2801.60 1498.80,-2800.80 1498.40,-2800.00"/>
    </edge>
    <edge id=":gneJ101_6" function="internal">
        <lane id=":gneJ101_6_0" index="0" speed="3.65" length="2.34" shape="1498.40,-2800.00 1498.80,-2799.20 1500.00,-2798.40"/>
    </edge>
    <edge id=":gneJ101_3" function="internal">
        <lane id=":gneJ101_3_0" index="0" speed="13.89" length="0.10" shape="1500.00,-2795.20 1500.00,-2795.20"/>
        <lane id=":gneJ101_3_1" index="1" speed="13.89" length="0.10" shape="1500.00,-2798.40 1500.00,-2798.40"/>
    </edge>
    <edge id=":gneJ101_5" function="internal">
        <lane id=":gneJ101_5_0" index="0" speed="3.65" length="2.34" shape="1500.00,-2798.40 1501.20,-2799.20 1501.60,-2800.00"/>
    </edge>
    <edge id=":gneJ101_7" function="internal">
        <lane id=":gneJ101_7_0" index="0" speed="3.65" length="2.34" shape="1501.60,-2800.00 1501.20,-2800.80 1500.00,-2801.60"/>
    </edge>
    <edge id=":gneJ102_0" function="internal">
        <lane id=":gneJ102_0_0" index="0" speed="6.51" length="9.03" shape="1995.20,-2810.40 1994.85,-2807.95 1993.80,-2806.20 1992.05,-2805.15 1989.60,-2804.80"/>
    </edge>
    <edge id=":gneJ102_1" function="internal">
        <lane id=":gneJ102_1_0" index="0" speed="13.89" length="20.80" shape="1995.20,-2810.40 1995.20,-2789.60"/>
        <lane id=":gneJ102_1_1" index="1" speed="13.89" length="20.80" shape="1998.40,-2810.40 1998.40,-2789.60"/>
    </edge>
    <edge id=":gneJ102_3" function="internal">
        <lane id=":gneJ102_3_0" index="0" speed="9.26" length="19.35" shape="1998.40,-2810.40 1999.15,-2805.15 2001.40,-2801.40 2005.15,-2799.15 2010.40,-2798.40"/>
    </edge>
    <edge id=":gneJ102_4" function="internal">
        <lane id=":gneJ102_4_0" index="0" speed="6.51" length="9.03" shape="2010.40,-2804.80 2007.95,-2805.15 2006.20,-2806.20 2005.15,-2807.95 2004.80,-2810.40"/>
    </edge>
    <edge id=":gneJ102_5" function="internal">
        <lane id=":gneJ102_5_0" index="0" speed="13.89" length="20.80" shape="2010.40,-2804.80 1989.60,-2804.80"/>
        <lane id=":gneJ102_5_1" index="1" speed="13.89" length="20.80" shape="2010.40,-2801.60 1989.60,-2801.60"/>
    </edge>
    <edge id=":gneJ102_7" function="internal">
        <lane id=":gneJ102_7_0" index="0" speed="9.26" length="19.35" shape="2010.40,-2801.60 2005.15,-2800.85 2001.40,-2798.60 1999.15,-2794.85 1998.40,-2789.60"/>
    </edge>
    <edge id=":gneJ102_8" function="internal">
        <lane id=":gneJ102_8_0" index="0" speed="6.51" length="9.03" shape="2004.80,-2789.60 2005.15,-2792.05 2006.20,-2793.80 2007.95,-2794.85 2010.40,-2795.20"/>
    </edge>
    <edge id=":gneJ102_9" function="internal">
        <lane id=":gneJ102_9_0" index="0" speed="13.89" length="20.80" shape="2004.80,-2789.60 2004.80,-2810.40"/>
        <lane id=":gneJ102_9_1" index="1" speed="13.89" length="20.80" shape="2001.60,-2789.60 2001.60,-2810.40"/>
    </edge>
    <edge id=":gneJ102_11" function="internal">
        <lane id=":gneJ102_11_0" index="0" speed="9.26" length="19.35" shape="2001.60,-2789.60 2000.85,-2794.85 1998.60,-2798.60 1994.85,-2800.85 1989.60,-2801.60"/>
    </edge>
    <edge id=":gneJ102_12" function="internal">
        <lane id=":gneJ102_12_0" index="0" speed="6.51" length="9.03" shape="1989.60,-2795.20 1992.05,-2794.85 1993.80,-2793.80 1994.85,-2792.05 1995.20,-2789.60"/>
    </edge>
    <edge id=":gneJ102_13" function="internal">
        <lane id=":gneJ102_13_0" index="0" speed="13.89" length="20.80" shape="1989.60,-2795.20 2010.40,-2795.20"/>
        <lane id=":gneJ102_13_1" index="1" speed="13.89" length="20.80" shape="1989.60,-2798.40 2010.40,-2798.40"/>
    </edge>
    <edge id=":gneJ102_15" function="internal">
        <lane id=":gneJ102_15_0" index="0" speed="9.26" length="19.35" shape="1989.60,-2798.40 1994.85,-2799.15 1998.60,-2801.40 2000.85,-2805.15 2001.60,-2810.40"/>
    </edge>
    <edge id=":gneJ103_0" function="internal">
        <lane id=":gneJ103_0_0" index="0" speed="13.89" length="0.10" shape="1995.20,-3280.00 1995.20,-3280.00"/>
        <lane id=":gneJ103_0_1" index="1" speed="13.89" length="0.10" shape="1998.40,-3280.00 1998.40,-3280.00"/>
    </edge>
    <edge id=":gneJ103_2" function="internal">
        <lane id=":gneJ103_2_0" index="0" speed="13.89" length="0.10" shape="2004.80,-3280.00 2004.80,-3280.00"/>
        <lane id=":gneJ103_2_1" index="1" speed="13.89" length="0.10" shape="2001.60,-3280.00 2001.60,-3280.00"/>
    </edge>
    <edge id=":gneJ103_4" function="internal">
        <lane id=":gneJ103_4_0" index="0" speed="3.65" length="2.34" shape="2001.60,-3280.00 2000.80,-3281.20 2000.00,-3281.60"/>
    </edge>
    <edge id=":gneJ103_5" function="internal">
        <lane id=":gneJ103_5_0" index="0" speed="3.65" length="2.34" shape="2000.00,-3281.60 1999.20,-3281.20 1998.40,-3280.00"/>
    </edge>
    <edge id=":gneJ105_0" function="internal">
        <lane id=":gneJ105_0_0" index="0" speed="13.89" length="0.10" shape="2500.00,-2804.80 2500.00,-2804.80"/>
        <lane id=":gneJ105_0_1" index="1" speed="13.89" length="0.10" shape="2500.00,-2801.60 2500.00,-2801.60"/>
    </edge>
    <edge id=":gneJ105_2" function="internal">
        <lane id=":gneJ105_2_0" index="0" speed="13.89" length="0.10" shape="2500.00,-2795.20 2500.00,-2795.20"/>
        <lane id=":gneJ105_2_1" index="1" speed="13.89" length="0.10" shape="2500.00,-2798.40 2500.00,-2798.40"/>
    </edge>
    <edge id=":gneJ106_0" function="internal">
        <lane id=":gneJ106_0_0" index="0" speed="6.51" length="9.03" shape="2995.20,-2810.40 2994.85,-2807.95 2993.80,-2806.20 2992.05,-2805.15 2989.60,-2804.80"/>
    </edge>
    <edge id=":gneJ106_1" function="internal">
        <lane id=":gneJ106_1_0" index="0" speed="13.89" length="20.80" shape="2995.20,-2810.40 2995.20,-2789.60"/>
        <lane id=":gneJ106_1_1" index="1" speed="13.89" length="20.80" shape="2998.40,-2810.40 2998.40,-2789.60"/>
    </edge>
    <edge id=":gneJ106_3" function="internal">
        <lane id=":gneJ106_3_0" index="0" speed="9.26" length="19.35" shape="2998.40,-2810.40 2999.15,-2805.15 3001.40,-2801.40 3005.15,-2799.15 3010.40,-2798.40"/>
    </edge>
    <edge id=":gneJ106_4" function="internal">
        <lane id=":gneJ106_4_0" index="0" speed="6.51" length="9.03" shape="3010.40,-2804.80 3007.95,-2805.15 3006.20,-2806.20 3005.15,-2807.95 3004.80,-2810.40"/>
    </edge>
    <edge id=":gneJ106_5" function="internal">
        <lane id=":gneJ106_5_0" index="0" speed="13.89" length="20.80" shape="3010.40,-2804.80 2989.60,-2804.80"/>
        <lane id=":gneJ106_5_1" index="1" speed="13.89" length="20.80" shape="3010.40,-2801.60 2989.60,-2801.60"/>
    </edge>
    <edge id=":gneJ106_7" function="internal">
        <lane id=":gneJ106_7_0" index="0" speed="9.26" length="19.35" shape="3010.40,-2801.60 3005.15,-2800.85 3001.40,-2798.60 2999.15,-2794.85 2998.40,-2789.60"/>
    </edge>
    <edge id=":gneJ106_8" function="internal">
        <lane id=":gneJ106_8_0" index="0" speed="6.51" length="9.03" shape="3004.80,-2789.60 3005.15,-2792.05 3006.20,-2793.80 3007.95,-2794.85 3010.40,-2795.20"/>
    </edge>
    <edge id=":gneJ106_9" function="internal">
        <lane id=":gneJ106_9_0" index="0" speed="13.89" length="20.80" shape="3004.80,-2789.60 3004.80,-2810.40"/>
        <lane id=":gneJ106_9_1" index="1" speed="13.89" length="20.80" shape="3001.60,-2789.60 3001.60,-2810.40"/>
    </edge>
    <edge id=":gneJ106_11" function="internal">
        <lane id=":gneJ106_11_0" index="0" speed="9.26" length="19.35" shape="3001.60,-2789.60 3000.85,-2794.85 2998.60,-2798.60 2994.85,-2800.85 2989.60,-2801.60"/>
    </edge>
    <edge id=":gneJ106_12" function="internal">
        <lane id=":gneJ106_12_0" index="0" speed="6.51" length="9.03" shape="2989.60,-2795.20 2992.05,-2794.85 2993.80,-2793.80 2994.85,-2792.05 2995.20,-2789.60"/>
    </edge>
    <edge id=":gneJ106_13" function="internal">
        <lane id=":gneJ106_13_0" index="0" speed="13.89" length="20.80" shape="2989.60,-2795.20 3010.40,-2795.20"/>
        <lane id=":gneJ106_13_1" index="1" speed="13.89" length="20.80" shape="2989.60,-2798.40 3010.40,-2798.40"/>
    </edge>
    <edge id=":gneJ106_15" function="internal">
        <lane id=":gneJ106_15_0" index="0" speed="9.26" length="19.35" shape="2989.60,-2798.40 2994.85,-2799.15 2998.60,-2801.40 3000.85,-2805.15 3001.60,-2810.40"/>
    </edge>
    <edge id=":gneJ107_0" function="internal">
        <lane id=":gneJ107_0_0" index="0" speed="13.89" length="0.10" shape="3480.00,-2804.80 3480.00,-2804.80"/>
        <lane id=":gneJ107_0_1" index="1" speed="13.89" length="0.10" shape="3480.00,-2801.60 3480.00,-2801.60"/>
    </edge>
    <edge id=":gneJ107_2" function="internal">
        <lane id=":gneJ107_2_0" index="0" speed="13.89" length="0.10" shape="3480.00,-2795.20 3480.00,-2795.20"/>
        <lane id=":gneJ107_2_1" index="1" speed="13.89" length="0.10" shape="3480.00,-2798.40 3480.00,-2798.40"/>
    </edge>
    <edge id=":gneJ107_4" function="internal">
        <lane id=":gneJ107_4_0" index="0" speed="3.65" length="2.34" shape="3480.00,-2798.40 3481.20,-2799.20 3481.60,-2800.00"/>
    </edge>
    <edge id=":gneJ107_5" function="internal">
        <lane id=":gneJ107_5_0" index="0" speed="3.65" length="2.34" shape="3481.60,-2800.00 3481.20,-2800.80 3480.00,-2801.60"/>
    </edge>
    <edge id=":gneJ108_0" function="internal">
        <lane id=":gneJ108_0_0" index="0" speed="13.89" length="0.10" shape="2995.20,-3280.00 2995.20,-3280.00"/>
        <lane id=":gneJ108_0_1" index="1" speed="13.89" length="0.10" shape="2998.40,-3280.00 2998.40,-3280.00"/>
    </edge>
    <edge id=":gneJ108_2" function="internal">
        <lane id=":gneJ108_2_0" index="0" speed="13.89" length="0.10" shape="3004.80,-3280.00 3004.80,-3280.00"/>
        <lane id=":gneJ108_2_1" index="1" speed="13.89" length="0.10" shape="3001.60,-3280.00 3001.60,-3280.00"/>
    </edge>
    <edge id=":gneJ108_4" function="internal">
        <lane id=":gneJ108_4_0" index="0" speed="3.65" length="2.34" shape="3001.60,-3280.00 3000.80,-3281.20 3000.00,-3281.60"/>
    </edge>
    <edge id=":gneJ108_5" function="internal">
        <lane id=":gneJ108_5_0" index="0" speed="3.65" length="2.34" shape="3000.00,-3281.60 2999.20,-3281.20 2998.40,-3280.00"/>
    </edge>
    <edge id=":gneJ13_0" function="internal">
        <lane id=":gneJ13_0_0" index="0" speed="13.89" length="0.10" shape="-4.80,-300.00 -4.80,-300.00"/>
        <lane id=":gneJ13_0_1" index="1" speed="13.89" length="0.10" shape="-1.60,-300.00 -1.60,-300.00"/>
    </edge>
    <edge id=":gneJ13_2" function="internal">
        <lane id=":gneJ13_2_0" index="0" speed="3.65" length="2.34" shape="-1.60,-300.00 -0.80,-298.80 0.00,-298.40"/>
    </edge>
    <edge id=":gneJ13_6" function="internal">
        <lane id=":gneJ13_6_0" index="0" speed="3.65" length="2.34" shape="0.00,-298.40 0.80,-298.80 1.60,-300.00"/>
    </edge>
    <edge id=":gneJ13_3" function="internal">
        <lane id=":gneJ13_3_0" index="0" speed="13.89" length="0.10" shape="4.80,-300.00 4.80,-300.00"/>
        <lane id=":gneJ13_3_1" index="1" speed="13.89" length="0.10" shape="1.60,-300.00 1.60,-300.00"/>
    </edge>
    <edge id=":gneJ13_5" function="internal">
        <lane id=":gneJ13_5_0" index="0" speed="3.65" length="2.34" shape="1.60,-300.00 0.80,-301.20 0.00,-301.60"/>
    </edge>
    <edge id=":gneJ13_7" function="internal">
        <lane id=":gneJ13_7_0" index="0" speed="3.65" length="2.34" shape="0.00,-301.60 -0.80,-301.20 -1.60,-300.00"/>
    </edge>
    <edge id=":gneJ130_0" function="internal">
        <lane id=":gneJ130_0_0" index="0" speed="13.89" length="0.10" shape="-480.00,195.20 -480.00,195.20"/>
        <lane id=":gneJ130_0_1" index="1" speed="13.89" length="0.10" shape="-480.00,198.40 -480.00,198.40"/>
    </edge>
    <edge id=":gneJ130_2" function="internal">
        <lane id=":gneJ130_2_0" index="0" speed="3.65" length="2.34" shape="-480.00,198.40 -481.20,199.20 -481.60,200.00"/>
    </edge>
    <edge id=":gneJ130_5" function="internal">
        <lane id=":gneJ130_5_0" index="0" speed="3.65" length="2.34" shape="-481.60,200.00 -481.20,200.80 -480.00,201.60"/>
    </edge>
    <edge id=":gneJ130_3" function="internal">
        <lane id=":gneJ130_3_0" index="0" speed="13.89" length="0.10" shape="-480.00,204.80 -480.00,204.80"/>
        <lane id=":gneJ130_3_1" index="1" speed="13.89" length="0.10" shape="-480.00,201.60 -480.00,201.60"/>
    </edge>
    <edge id=":gneJ14_0" function="internal">
        <lane id=":gneJ14_0_0" index="0" speed="13.89" length="0.10" shape="500.00,195.20 500.00,195.20"/>
        <lane id=":gneJ14_0_1" index="1" speed="13.89" length="0.10" shape="500.00,198.40 500.00,198.40"/>
    </edge>
    <edge id=":gneJ14_2" function="internal">
        <lane id=":gneJ14_2_0" index="0" speed="3.65" length="2.34" shape="500.00,198.40 498.80,199.20 498.40,200.00"/>
    </edge>
    <edge id=":gneJ14_6" function="internal">
        <lane id=":gneJ14_6_0" index="0" speed="3.65" length="2.34" shape="498.40,200.00 498.80,200.80 500.00,201.60"/>
    </edge>
    <edge id=":gneJ14_3" function="internal">
        <lane id=":gneJ14_3_0" index="0" speed="13.89" length="0.10" shape="500.00,204.80 500.00,204.80"/>
        <lane id=":gneJ14_3_1" index="1" speed="13.89" length="0.10" shape="500.00,201.60 500.00,201.60"/>
    </edge>
    <edge id=":gneJ14_5" function="internal">
        <lane id=":gneJ14_5_0" index="0" speed="3.65" length="2.34" shape="500.00,201.60 501.20,200.80 501.60,200.00"/>
    </edge>
    <edge id=":gneJ14_7" function="internal">
        <lane id=":gneJ14_7_0" index="0" speed="3.65" length="2.34" shape="501.60,200.00 501.20,199.20 500.00,198.40"/>
    </edge>
    <edge id=":gneJ15_0" function="internal">
        <lane id=":gneJ15_0_0" index="0" speed="6.51" length="9.03" shape="995.20,189.60 994.85,192.05 993.80,193.80 992.05,194.85 989.60,195.20"/>
    </edge>
    <edge id=":gneJ15_1" function="internal">
        <lane id=":gneJ15_1_0" index="0" speed="13.89" length="20.80" shape="995.20,189.60 995.20,210.40"/>
        <lane id=":gneJ15_1_1" index="1" speed="13.89" length="20.80" shape="998.40,189.60 998.40,210.40"/>
    </edge>
    <edge id=":gneJ15_3" function="internal">
        <lane id=":gneJ15_3_0" index="0" speed="9.26" length="19.35" shape="998.40,189.60 999.15,194.85 1001.40,198.60 1005.15,200.85 1010.40,201.60"/>
    </edge>
    <edge id=":gneJ15_4" function="internal">
        <lane id=":gneJ15_4_0" index="0" speed="6.51" length="9.03" shape="1010.40,195.20 1007.95,194.85 1006.20,193.80 1005.15,192.05 1004.80,189.60"/>
    </edge>
    <edge id=":gneJ15_5" function="internal">
        <lane id=":gneJ15_5_0" index="0" speed="13.89" length="20.80" shape="1010.40,195.20 989.60,195.20"/>
        <lane id=":gneJ15_5_1" index="1" speed="13.89" length="20.80" shape="1010.40,198.40 989.60,198.40"/>
    </edge>
    <edge id=":gneJ15_7" function="internal">
        <lane id=":gneJ15_7_0" index="0" speed="9.26" length="19.35" shape="1010.40,198.40 1005.15,199.15 1001.40,201.40 999.15,205.15 998.40,210.40"/>
    </edge>
    <edge id=":gneJ15_8" function="internal">
        <lane id=":gneJ15_8_0" index="0" speed="6.51" length="9.03" shape="1004.80,210.40 1005.15,207.95 1006.20,206.20 1007.95,205.15 1010.40,204.80"/>
    </edge>
    <edge id=":gneJ15_9" function="internal">
        <lane id=":gneJ15_9_0" index="0" speed="13.89" length="20.80" shape="1004.80,210.40 1004.80,189.60"/>
        <lane id=":gneJ15_9_1" index="1" speed="13.89" length="20.80" shape="1001.60,210.40 1001.60,189.60"/>
    </edge>
    <edge id=":gneJ15_11" function="internal">
        <lane id=":gneJ15_11_0" index="0" speed="9.26" length="19.35" shape="1001.60,210.40 1000.85,205.15 998.60,201.40 994.85,199.15 989.60,198.40"/>
    </edge>
    <edge id=":gneJ15_12" function="internal">
        <lane id=":gneJ15_12_0" index="0" speed="6.51" length="9.03" shape="989.60,204.80 992.05,205.15 993.80,206.20 994.85,207.95 995.20,210.40"/>
    </edge>
    <edge id=":gneJ15_13" function="internal">
        <lane id=":gneJ15_13_0" index="0" speed="13.89" length="20.80" shape="989.60,204.80 1010.40,204.80"/>
        <lane id=":gneJ15_13_1" index="1" speed="13.89" length="20.80" shape="989.60,201.60 1010.40,201.60"/>
    </edge>
    <edge id=":gneJ15_15" function="internal">
        <lane id=":gneJ15_15_0" index="0" speed="9.26" length="19.35" shape="989.60,201.60 994.85,200.85 998.60,198.60 1000.85,194.85 1001.60,189.60"/>
    </edge>
    <edge id=":gneJ16_0" function="internal">
        <lane id=":gneJ16_0_0" index="0" speed="13.89" length="0.10" shape="995.20,680.00 995.20,680.00"/>
        <lane id=":gneJ16_0_1" index="1" speed="13.89" length="0.10" shape="998.40,680.00 998.40,680.00"/>
    </edge>
    <edge id=":gneJ16_2" function="internal">
        <lane id=":gneJ16_2_0" index="0" speed="3.65" length="2.34" shape="998.40,680.00 999.20,681.20 1000.00,681.60"/>
    </edge>
    <edge id=":gneJ16_5" function="internal">
        <lane id=":gneJ16_5_0" index="0" speed="3.65" length="2.34" shape="1000.00,681.60 1000.80,681.20 1001.60,680.00"/>
    </edge>
    <edge id=":gneJ16_3" function="internal">
        <lane id=":gneJ16_3_0" index="0" speed="13.89" length="0.10" shape="1004.80,680.00 1004.80,680.00"/>
        <lane id=":gneJ16_3_1" index="1" speed="13.89" length="0.10" shape="1001.60,680.00 1001.60,680.00"/>
    </edge>
    <edge id=":gneJ18_0" function="internal">
        <lane id=":gneJ18_0_0" index="0" speed="13.89" length="0.10" shape="995.20,-300.00 995.20,-300.00"/>
        <lane id=":gneJ18_0_1" index="1" speed="13.89" length="0.10" shape="998.40,-300.00 998.40,-300.00"/>
    </edge>
    <edge id=":gneJ18_2" function="internal">
        <lane id=":gneJ18_2_0" index="0" speed="3.65" length="2.34" shape="998.40,-300.00 999.20,-298.80 1000.00,-298.40"/>
    </edge>
    <edge id=":gneJ18_6" function="internal">
        <lane id=":gneJ18_6_0" index="0" speed="3.65" length="2.34" shape="1000.00,-298.40 1000.80,-298.80 1001.60,-300.00"/>
    </edge>
    <edge id=":gneJ18_3" function="internal">
        <lane id=":gneJ18_3_0" index="0" speed="13.89" length="0.10" shape="1004.80,-300.00 1004.80,-300.00"/>
        <lane id=":gneJ18_3_1" index="1" speed="13.89" length="0.10" shape="1001.60,-300.00 1001.60,-300.00"/>
    </edge>
    <edge id=":gneJ18_5" function="internal">
        <lane id=":gneJ18_5_0" index="0" speed="3.65" length="2.34" shape="1001.60,-300.00 1000.80,-301.20 1000.00,-301.60"/>
    </edge>
    <edge id=":gneJ18_7" function="internal">
        <lane id=":gneJ18_7_0" index="0" speed="3.65" length="2.34" shape="1000.00,-301.60 999.20,-301.20 998.40,-300.00"/>
    </edge>
    <edge id=":gneJ19_0" function="internal">
        <lane id=":gneJ19_0_0" index="0" speed="13.89" length="0.10" shape="1500.00,195.20 1500.00,195.20"/>
        <lane id=":gneJ19_0_1" index="1" speed="13.89" length="0.10" shape="1500.00,198.40 1500.00,198.40"/>
    </edge>
    <edge id=":gneJ19_2" function="internal">
        <lane id=":gneJ19_2_0" index="0" speed="3.65" length="2.34" shape="1500.00,198.40 1498.80,199.20 1498.40,200.00"/>
    </edge>
    <edge id=":gneJ19_6" function="internal">
        <lane id=":gneJ19_6_0" index="0" speed="3.65" length="2.34" shape="1498.40,200.00 1498.80,200.80 1500.00,201.60"/>
    </edge>
    <edge id=":gneJ19_3" function="internal">
        <lane id=":gneJ19_3_0" index="0" speed="13.89" length="0.10" shape="1500.00,204.80 1500.00,204.80"/>
        <lane id=":gneJ19_3_1" index="1" speed="13.89" length="0.10" shape="1500.00,201.60 1500.00,201.60"/>
    </edge>
    <edge id=":gneJ19_5" function="internal">
        <lane id=":gneJ19_5_0" index="0" speed="3.65" length="2.34" shape="1500.00,201.60 1501.20,200.80 1501.60,200.00"/>
    </edge>
    <edge id=":gneJ19_7" function="internal">
        <lane id=":gneJ19_7_0" index="0" speed="3.65" length="2.34" shape="1501.60,200.00 1501.20,199.20 1500.00,198.40"/>
    </edge>
    <edge id=":gneJ21_0" function="internal">
        <lane id=":gneJ21_0_0" index="0" speed="6.51" length="9.03" shape="-4.80,-810.40 -5.15,-807.95 -6.20,-806.20 -7.95,-805.15 -10.40,-804.80"/>
    </edge>
    <edge id=":gneJ21_1" function="internal">
        <lane id=":gneJ21_1_0" index="0" speed="13.89" length="20.80" shape="-4.80,-810.40 -4.80,-789.60"/>
        <lane id=":gneJ21_1_1" index="1" speed="13.89" length="20.80" shape="-1.60,-810.40 -1.60,-789.60"/>
    </edge>
    <edge id=":gneJ21_3" function="internal">
        <lane id=":gneJ21_3_0" index="0" speed="9.26" length="19.35" shape="-1.60,-810.40 -0.85,-805.15 1.40,-801.40 5.15,-799.15 10.40,-798.40"/>
    </edge>
    <edge id=":gneJ21_4" function="internal">
        <lane id=":gneJ21_4_0" index="0" speed="6.51" length="9.03" shape="10.40,-804.80 7.95,-805.15 6.20,-806.20 5.15,-807.95 4.80,-810.40"/>
    </edge>
    <edge id=":gneJ21_5" function="internal">
        <lane id=":gneJ21_5_0" index="0" speed="13.89" length="20.80" shape="10.40,-804.80 -10.40,-804.80"/>
        <lane id=":gneJ21_5_1" index="1" speed="13.89" length="20.80" shape="10.40,-801.60 -10.40,-801.60"/>
    </edge>
    <edge id=":gneJ21_7" function="internal">
        <lane id=":gneJ21_7_0" index="0" speed="9.26" length="19.35" shape="10.40,-801.60 5.15,-800.85 1.40,-798.60 -0.85,-794.85 -1.60,-789.60"/>
    </edge>
    <edge id=":gneJ21_8" function="internal">
        <lane id=":gneJ21_8_0" index="0" speed="6.51" length="9.03" shape="4.80,-789.60 5.15,-792.05 6.20,-793.80 7.95,-794.85 10.40,-795.20"/>
    </edge>
    <edge id=":gneJ21_9" function="internal">
        <lane id=":gneJ21_9_0" index="0" speed="13.89" length="20.80" shape="4.80,-789.60 4.80,-810.40"/>
        <lane id=":gneJ21_9_1" index="1" speed="13.89" length="20.80" shape="1.60,-789.60 1.60,-810.40"/>
    </edge>
    <edge id=":gneJ21_11" function="internal">
        <lane id=":gneJ21_11_0" index="0" speed="9.26" length="19.35" shape="1.60,-789.60 0.85,-794.85 -1.40,-798.60 -5.15,-800.85 -10.40,-801.60"/>
    </edge>
    <edge id=":gneJ21_12" function="internal">
        <lane id=":gneJ21_12_0" index="0" speed="6.51" length="9.03" shape="-10.40,-795.20 -7.95,-794.85 -6.20,-793.80 -5.15,-792.05 -4.80,-789.60"/>
    </edge>
    <edge id=":gneJ21_13" function="internal">
        <lane id=":gneJ21_13_0" index="0" speed="13.89" length="20.80" shape="-10.40,-795.20 10.40,-795.20"/>
        <lane id=":gneJ21_13_1" index="1" speed="13.89" length="20.80" shape="-10.40,-798.40 10.40,-798.40"/>
    </edge>
    <edge id=":gneJ21_15" function="internal">
        <lane id=":gneJ21_15_0" index="0" speed="9.26" length="19.35" shape="-10.40,-798.40 -5.15,-799.15 -1.40,-801.40 0.85,-805.15 1.60,-810.40"/>
    </edge>
    <edge id=":gneJ26_0" function="internal">
        <lane id=":gneJ26_0_0" index="0" speed="13.89" length="0.10" shape="-4.80,-1300.00 -4.80,-1300.00"/>
        <lane id=":gneJ26_0_1" index="1" speed="13.89" length="0.10" shape="-1.60,-1300.00 -1.60,-1300.00"/>
    </edge>
    <edge id=":gneJ26_2" function="internal">
        <lane id=":gneJ26_2_0" index="0" speed="3.65" length="2.34" shape="-1.60,-1300.00 -0.80,-1298.80 0.00,-1298.40"/>
    </edge>
    <edge id=":gneJ26_6" function="internal">
        <lane id=":gneJ26_6_0" index="0" speed="3.65" length="2.34" shape="0.00,-1298.40 0.80,-1298.80 1.60,-1300.00"/>
    </edge>
    <edge id=":gneJ26_3" function="internal">
        <lane id=":gneJ26_3_0" index="0" speed="13.89" length="0.10" shape="4.80,-1300.00 4.80,-1300.00"/>
        <lane id=":gneJ26_3_1" index="1" speed="13.89" length="0.10" shape="1.60,-1300.00 1.60,-1300.00"/>
    </edge>
    <edge id=":gneJ26_5" function="internal">
        <lane id=":gneJ26_5_0" index="0" speed="3.65" length="2.34" shape="1.60,-1300.00 0.80,-1301.20 0.00,-1301.60"/>
    </edge>
    <edge id=":gneJ26_7" function="internal">
        <lane id=":gneJ26_7_0" index="0" speed="3.65" length="2.34" shape="0.00,-1301.60 -0.80,-1301.20 -1.60,-1300.00"/>
    </edge>
    <edge id=":gneJ27_0" function="internal">
        <lane id=":gneJ27_0_0" index="0" speed="13.89" length="0.10" shape="500.00,-804.80 500.00,-804.80"/>
        <lane id=":gneJ27_0_1" index="1" speed="13.89" length="0.10" shape="500.00,-801.60 500.00,-801.60"/>
    </edge>
    <edge id=":gneJ27_2" function="internal">
        <lane id=":gneJ27_2_0" index="0" speed="3.65" length="2.34" shape="500.00,-801.60 498.80,-800.80 498.40,-800.00"/>
    </edge>
    <edge id=":gneJ27_6" function="internal">
        <lane id=":gneJ27_6_0" index="0" speed="3.65" length="2.34" shape="498.40,-800.00 498.80,-799.20 500.00,-798.40"/>
    </edge>
    <edge id=":gneJ27_3" function="internal">
        <lane id=":gneJ27_3_0" index="0" speed="13.89" length="0.10" shape="500.00,-795.20 500.00,-795.20"/>
        <lane id=":gneJ27_3_1" index="1" speed="13.89" length="0.10" shape="500.00,-798.40 500.00,-798.40"/>
    </edge>
    <edge id=":gneJ27_5" function="internal">
        <lane id=":gneJ27_5_0" index="0" speed="3.65" length="2.34" shape="500.00,-798.40 501.20,-799.20 501.60,-800.00"/>
    </edge>
    <edge id=":gneJ27_7" function="internal">
        <lane id=":gneJ27_7_0" index="0" speed="3.65" length="2.34" shape="501.60,-800.00 501.20,-800.80 500.00,-801.60"/>
    </edge>
    <edge id=":gneJ29_0" function="internal">
        <lane id=":gneJ29_0_0" index="0" speed="6.51" length="9.03" shape="995.20,-810.40 994.85,-807.95 993.80,-806.20 992.05,-805.15 989.60,-804.80"/>
    </edge>
    <edge id=":gneJ29_1" function="internal">
        <lane id=":gneJ29_1_0" index="0" speed="13.89" length="20.80" shape="995.20,-810.40 995.20,-789.60"/>
        <lane id=":gneJ29_1_1" index="1" speed="13.89" length="20.80" shape="998.40,-810.40 998.40,-789.60"/>
    </edge>
    <edge id=":gneJ29_3" function="internal">
        <lane id=":gneJ29_3_0" index="0" speed="9.26" length="19.35" shape="998.40,-810.40 999.15,-805.15 1001.40,-801.40 1005.15,-799.15 1010.40,-798.40"/>
    </edge>
    <edge id=":gneJ29_4" function="internal">
        <lane id=":gneJ29_4_0" index="0" speed="6.51" length="9.03" shape="1010.40,-804.80 1007.95,-805.15 1006.20,-806.20 1005.15,-807.95 1004.80,-810.40"/>
    </edge>
    <edge id=":gneJ29_5" function="internal">
        <lane id=":gneJ29_5_0" index="0" speed="13.89" length="20.80" shape="1010.40,-804.80 989.60,-804.80"/>
        <lane id=":gneJ29_5_1" index="1" speed="13.89" length="20.80" shape="1010.40,-801.60 989.60,-801.60"/>
    </edge>
    <edge id=":gneJ29_7" function="internal">
        <lane id=":gneJ29_7_0" index="0" speed="9.26" length="19.35" shape="1010.40,-801.60 1005.15,-800.85 1001.40,-798.60 999.15,-794.85 998.40,-789.60"/>
    </edge>
    <edge id=":gneJ29_8" function="internal">
        <lane id=":gneJ29_8_0" index="0" speed="6.51" length="9.03" shape="1004.80,-789.60 1005.15,-792.05 1006.20,-793.80 1007.95,-794.85 1010.40,-795.20"/>
    </edge>
    <edge id=":gneJ29_9" function="internal">
        <lane id=":gneJ29_9_0" index="0" speed="13.89" length="20.80" shape="1004.80,-789.60 1004.80,-810.40"/>
        <lane id=":gneJ29_9_1" index="1" speed="13.89" length="20.80" shape="1001.60,-789.60 1001.60,-810.40"/>
    </edge>
    <edge id=":gneJ29_11" function="internal">