<?xml version="1.0" encoding="UTF-8"?>

<!-- generated on 03/29/21 04:49:04 by Eclipse SUMO duarouter Version 1.6.0
<configuration xmlns:xsi="http://www.w3.org/2001/XMLSchema-instance" xsi:noNamespaceSchemaLocation="http://sumo.dlr.de/xsd/duarouterConfiguration.xsd">

    <input>
        <net-file value="../4-way.net.xml"/>
        <additional-files value="vTypeDistributions.add.xml"/>
        <route-files value="trips.trips.xml"/>
    </input>

    <output>
        <output-file value="./Period_1/Period_1.rou.xml"/>
        <alternatives-output value="./Period_1/Period_1.rou.alt.xml"/>
    </output>

    <time>
        <begin value="0"/>
        <end value="5000.0"/>
    </time>

    <report>
        <no-warnings value="true"/>
        <ignore-errors value="true"/>
        <no-step-log value="true"/>
    </report>

</configuration>
-->

<routes xmlns:xsi="http://www.w3.org/2001/XMLSchema-instance" xsi:noNamespaceSchemaLocation="http://sumo.dlr.de/xsd/routes_file.xsd">
    <vType id="vehDist4" length="4.70" minGap="1.30" maxSpeed="15.27" vClass="passenger" carFollowModel="Krauss" accel="1.737" sigma="0.574"/>
    <vehicle id="0" type="vehDist4" depart="0.00" departLane="best" departPos="random" departSpeed="random">
        <route edges="gneE14"/>
    </vehicle>
    <vType id="vehDist3" length="4.70" minGap="1.30" maxSpeed="33.08" vClass="passenger" carFollowModel="Krauss" accel="2.593" sigma="0.407"/>
    <vehicle id="1" type="vehDist3" depart="1.00" departLane="best" departPos="random" departSpeed="random">
        <route edges="gneE13 gneE14 -gneE12 -gneE11"/>
    </vehicle>
    <vType id="vehDist0" length="4.70" minGap="1.30" maxSpeed="31.50" vClass="passenger" carFollowModel="Krauss" accel="1.801" sigma="0.549"/>
    <vehicle id="2" type="vehDist0" depart="2.00" departLane="best" departPos="random" departSpeed="random">
        <route edges="gneE12 -gneE10 -gneE9"/>
    </vehicle>
    <vType id="vehDist2" length="4.70" minGap="1.30" maxSpeed="19.82" vClass="passenger" carFollowModel="Krauss" accel="2.695" sigma="0.266"/>
    <vehicle id="3" type="vehDist2" depart="3.00" departLane="best" departPos="random" departSpeed="random">
        <route edges="gneE13 gneE14 -gneE10"/>
    </vehicle>
    <vehicle id="4" type="vehDist2" depart="4.00" departLane="best" departPos="random" departSpeed="random">
        <route edges="gneE11 gneE12 -gneE10 -gneE9"/>
    </vehicle>
    <vehicle id="5" type="vehDist0" depart="5.00" departLane="best" departPos="random" departSpeed="random">
        <route edges="gneE7 gneE8 -gneE12 -gneE11"/>
    </vehicle>
    <vehicle id="6" type="vehDist3" depart="6.00" departLane="best" departPos="random" departSpeed="random">
        <route edges="gneE11 gneE12 -gneE8"/>
    </vehicle>
    <vType id="vehDist1" length="4.70" minGap="1.30" maxSpeed="26.40" vClass="passenger" carFollowModel="Krauss" accel="1.610" sigma="0.472"/>
    <vehicle id="7" type="vehDist1" depart="7.00" departLane="best" departPos="random" departSpeed="random">
        <route edges="gneE11 gneE12 -gneE14 -gneE13"/>
    </vehicle>
    <vehicle id="8" type="vehDist2" depart="8.00" departLane="best" departPos="random" departSpeed="random">
        <route edges="gneE13 gneE14 -gneE8 -gneE7"/>
    </vehicle>
    <vehicle id="9" type="vehDist3" depart="9.00" departLane="best" departPos="random" departSpeed="random">
        <route edges="gneE10 -gneE14"/>
    </vehicle>
    <vehicle id="10" type="vehDist0" depart="10.00" departLane="best" departPos="random" departSpeed="random">
        <route edges="gneE9 gneE10 -gneE14 -gneE13"/>
    </vehicle>
    <vehicle id="11" type="vehDist3" depart="11.00" departLane="best" departPos="random" departSpeed="random">
        <route edges="gneE7 gneE8 -gneE12 -gneE11"/>
    </vehicle>
    <vehicle id="13" type="vehDist2" depart="13.00" departLane="best" departPos="random" departSpeed="random">
        <route edges="gneE10 -gneE12 -gneE11"/>
    </vehicle>
    <vehicle id="15" type="vehDist1" depart="15.00" departLane="best" departPos="random" departSpeed="random">
        <route edges="gneE9 gneE10 -gneE8 -gneE7"/>
    </vehicle>
    <vehicle id="16" type="vehDist0" depart="16.00" departLane="best" departPos="random" departSpeed="random">
        <route edges="gneE13 gneE14 -gneE10"/>
    </vehicle>
    <vehicle id="17" type="vehDist4" depart="17.00" departLane="best" departPos="random" departSpeed="random">
        <route edges="gneE7 gneE8 -gneE14 -gneE13"/>
    </vehicle>
    <vehicle id="18" type="vehDist1" depart="18.00" departLane="best" departPos="random" departSpeed="random">
        <route edges="gneE7 gneE8 -gneE14 -gneE13"/>
    </vehicle>
    <vehicle id="19" type="vehDist3" depart="19.00" departLane="best" departPos="random" departSpeed="random">
        <route edges="gneE9 gneE10 -gneE12 -gneE11"/>
    </vehicle>
    <vehicle id="20" type="vehDist0" depart="20.00" departLane="best" departPos="random" departSpeed="random">
        <route edges="gneE14 -gneE12 -gneE11"/>
    </vehicle>
    <vehicle id="21" type="vehDist2" depart="21.00" departLane="best" departPos="random" departSpeed="random">
        <route edges="gneE11 gneE12 -gneE14 -gneE13"/>
    </vehicle>
    <vehicle id="23" type="vehDist3" depart="23.00" departLane="best" departPos="random" departSpeed="random">
        <route edges="gneE13 gneE14 -gneE10 -gneE9"/>
    </vehicle>
    <vehicle id="24" type="vehDist4" depart="24.00" departLane="best" departPos="random" departSpeed="random">
        <route edges="gneE7 gneE8 -gneE10 -gneE9"/>
    </vehicle>
    <vehicle id="29" type="vehDist1" depart="29.00" departLane="best" departPos="random" departSpeed="random">
        <route edges="-gneE12 -gneE11"/>
    </vehicle>
    <vehicle id="30" type="vehDist0" depart="30.00" departLane="best" departPos="random" departSpeed="random">
        <route edges="gneE9 gneE10 -gneE8"/>
    </vehicle>
    <vehicle id="31" type="vehDist1" depart="31.00" departLane="best" departPos="random" departSpeed="random">
        <route edges="gneE11 gneE12 -gneE10 -gneE9"/>
    </vehicle>
    <vehicle id="33" type="vehDist0" depart="33.00" departLane="best" departPos="random" departSpeed="random">
        <route edges="gneE8 -gneE12 -gneE11"/>
    </vehicle>
    <vehicle id="34" type="vehDist4" depart="34.00" departLane="best" departPos="random" departSpeed="random">
        <route edges="gneE11 gneE12 -gneE8 -gneE7"/>
    </vehicle>
    <vehicle id="35" type="vehDist0" depart="35.00" departLane="best" departPos="random" departSpeed="random">
        <route edges="gneE10 -gneE8 -gneE7"/>
    </vehicle>
    <vehicle id="38" type="vehDist0" depart="38.00" departLane="best" departPos="random" departSpeed="random">
        <route edges="gneE11 gneE12 -gneE10 -gneE9"/>
    </vehicle>
    <vehicle id="39" type="vehDist0" depart="39.00" departLane="best" departPos="random" departSpeed="random">
        <route edges="gneE13 gneE14"/>
    </vehicle>
    <vehicle id="40" type="vehDist2" depart="40.00" departLane="best" departPos="random" departSpeed="random">
        <route edges="gneE9 gneE10 -gneE8 -gneE7"/>
    </vehicle>
    <vehicle id="42" type="vehDist1" depart="42.00" departLane="best" departPos="random" departSpeed="random">
        <route edges="gneE13 gneE14 -gneE8 -gneE7"/>
    </vehicle>
    <vehicle id="43" type="vehDist1" depart="43.00" departLane="best" departPos="random" departSpeed="random">
        <route edges="gneE11 gneE12 -gneE14 -gneE13"/>
    </vehicle>
    <vehicle id="44" type="vehDist0" depart="44.00" departLane="best" departPos="random" departSpeed="random">
        <route edges="gneE7 gneE8 -gneE12 -gneE11"/>
    </vehicle>
    <vehicle id="45" type="vehDist2" depart="45.00" departLane="best" departPos="random" departSpeed="random">
        <route edges="gneE11 gneE12 -gneE8 -gneE7"/>
    </vehicle>
    <vehicle id="47" type="vehDist4" depart="47.00" departLane="best" departPos="random" departSpeed="random">
        <route edges="gneE9 gneE10 -gneE14 -gneE13"/>
    </vehicle>
    <vehicle id="52" type="vehDist3" depart="52.00" departLane="best" departPos="random" departSpeed="random">
        <route edges="gneE9 gneE10 -gneE14 -gneE13"/>
    </vehicle>
    <vehicle id="53" type="vehDist4" depart="53.00" departLane="best" departPos="random" departSpeed="random">
        <route edges="gneE7 gneE8 -gneE14 -gneE13"/>
    </vehicle>
    <vehicle id="56" type="vehDist2" depart="56.00" departLane="best" departPos="random" departSpeed="random">
        <route edges="gneE11 gneE12 -gneE10 -gneE9"/>
    </vehicle>
    <vehicle id="57" type="vehDist2" depart="57.00" departLane="best" departPos="random" departSpeed="random">
        <route edges="gneE12 -gneE8 -gneE7"/>
    </vehicle>
    <vehicle id="58" type="vehDist0" depart="58.00" departLane="best" departPos="random" departSpeed="random">
        <route edges="gneE13 gneE14 -gneE12 -gneE11"/>
    </vehicle>
    <vehicle id="59" type="vehDist4" depart="59.00" departLane="best" departPos="random" departSpeed="random">
        <route edges="-gneE14 -gneE13"/>
    </vehicle>
    <vehicle id="60" type="vehDist0" depart="60.00" departLane="best" departPos="random" departSpeed="random">
        <route edges="gneE11 gneE12 -gneE14 -gneE13"/>
    </vehicle>
    <vehicle id="62" type="vehDist0" depart="62.00" departLane="best" departPos="random" departSpeed="random">
        <route edges="gneE9 gneE10 -gneE12 -gneE11"/>
    </vehicle>
    <vehicle id="63" type="vehDist0" depart="63.00" departLane="best" departPos="random" departSpeed="random">
        <route edges="gneE12 -gneE8 -gneE7"/>
    </vehicle>
    <vehicle id="64" type="vehDist1" depart="64.00" departLane="best" departPos="random" departSpeed="random">
        <route edges="gneE13 gneE14 -gneE10 -gneE9"/>
    </vehicle>
    <vehicle id="65" type="vehDist2" depart="65.00" departLane="best" departPos="random" departSpeed="random">
        <route edges="gneE13 gneE14 -gneE12 -gneE11"/>
    </vehicle>
    <vehicle id="66" type="vehDist4" depart="66.00" departLane="best" departPos="random" departSpeed="random">
        <route edges="gneE13 gneE14 -gneE8 -gneE7"/>
    </vehicle>
    <vehicle id="67" type="vehDist0" depart="67.00" departLane="best" departPos="random" departSpeed="random">
        <route edges="gneE13 gneE14 -gneE8 -gneE7"/>
    </vehicle>
    <vehicle id="69" type="vehDist4" depart="69.00" departLane="best" departPos="random" departSpeed="random">
        <route edges="gneE9 gneE10 -gneE12 -gneE11"/>
    </vehicle>
    <vehicle id="70" type="vehDist1" depart="70.00" departLane="best" departPos="random" departSpeed="random">
        <route edges="gneE11 gneE12 -gneE14 -gneE13"/>
    </vehicle>
    <vehicle id="71" type="vehDist1" depart="71.00" departLane="best" departPos="random" departSpeed="random">
        <route edges="gneE11 gneE12 -gneE10 -gneE9"/>
    </vehicle>
    <vehicle id="72" type="vehDist0" depart="72.00" departLane="best" departPos="random" departSpeed="random">
        <route edges="gneE13 gneE14 -gneE8 -gneE7"/>
    </vehicle>
    <vehicle id="74" type="vehDist1" depart="74.00" departLane="best" departPos="random" departSpeed="random">
        <route edges="gneE11 gneE12 -gneE10"/>
    </vehicle>
    <vehicle id="76" type="vehDist0" depart="76.00" departLane="best" departPos="random" departSpeed="random">
        <route edges="gneE13 gneE14 -gneE8 -gneE7"/>
    </vehicle>
    <vehicle id="77" type="vehDist0" depart="77.00" departLane="best" departPos="random" departSpeed="random">
        <route edges="gneE7 gneE8 -gneE14 -gneE13"/>
    </vehicle>
    <vehicle id="78" type="vehDist3" depart="78.00" departLane="best" departPos="random" departSpeed="random">
        <route edges="gneE9 gneE10 -gneE14 -gneE13"/>
    </vehicle>
    <vehicle id="79" type="vehDist1" depart="79.00" departLane="best" departPos="random" departSpeed="random">
        <route edges="-gneE8 -gneE7"/>
    </vehicle>
    <vehicle id="82" type="vehDist3" depart="82.00" departLane="best" departPos="random" departSpeed="random">
        <route edges="gneE13 gneE14 -gneE10 -gneE9"/>
    </vehicle>
    <vehicle id="84" type="vehDist3" depart="84.00" departLane="best" departPos="random" departSpeed="random">
        <route edges="gneE14 -gneE12"/>
    </vehicle>
    <vehicle id="85" type="vehDist1" depart="85.00" departLane="best" departPos="random" departSpeed="random">
        <route edges="gneE11 gneE12 -gneE8 -gneE7"/>
    </vehicle>
    <vehicle id="86" type="vehDist2" depart="86.00" departLane="best" departPos="random" departSpeed="random">
        <route edges="gneE9 gneE10 -gneE8 -gneE7"/>
    </vehicle>
    <vehicle id="87" type="vehDist4" depart="87.00" departLane="best" departPos="random" departSpeed="random">
        <route edges="gneE7 gneE8 -gneE14 -gneE13"/>
    </vehicle>
    <vehicle id="88" type="vehDist2" depart="88.00" departLane="best" departPos="random" departSpeed="random">
        <route edges="gneE11 gneE12 -gneE14 -gneE13"/>
    </vehicle>
    <vehicle id="89" type="vehDist2" depart="89.00" departLane="best" departPos="random" departSpeed="random">
        <route edges="gneE7 gneE8 -gneE12 -gneE11"/>
    </vehicle>
    <vehicle id="90" type="vehDist1" depart="90.00" departLane="best" departPos="random" departSpeed="random">
        <route edges="gneE9 gneE10 -gneE14"/>
    </vehicle>
    <vehicle id="91" type="vehDist4" depart="91.00" departLane="best" departPos="random" departSpeed="random">
        <route edges="gneE7 gneE8 -gneE12 -gneE11"/>
    </vehicle>
    <vehicle id="92" type="vehDist0" depart="92.00" departLane="best" departPos="random" departSpeed="random">
        <route edges="gneE13 gneE14 -gneE12 -gneE11"/>
    </vehicle>
    <vehicle id="93" type="vehDist1" depart="93.00" departLane="best" departPos="random" departSpeed="random">
        <route edges="gneE12 -gneE14 -gneE13"/>
    </vehicle>
    <vehicle id="94" type="vehDist0" depart="94.00" departLane="best" departPos="random" departSpeed="random">
        <route edges="gneE13 gneE14 -gneE12 -gneE11"/>
    </vehicle>
    <vehicle id="95" type="vehDist4" depart="95.00" departLane="best" departPos="random" departSpeed="random">
        <route edges="gneE11 gneE12 -gneE14 -gneE13"/>
    </vehicle>
    <vehicle id="96" type="vehDist3" depart="96.00" departLane="best" departPos="random" departSpeed="random">
        <route edges="gneE9 gneE10 -gneE12 -gneE11"/>
    </vehicle>
    <vehicle id="97" type="vehDist4" depart="97.00" departLane="best" departPos="random" departSpeed="random">
        <route edges="gneE12 -gneE10 -gneE9"/>
    </vehicle>
    <vehicle id="100" type="vehDist3" depart="100.00" departLane="best" departPos="random" departSpeed="random">
        <route edges="gneE7 gneE8 -gneE12"/>
    </vehicle>
    <vehicle id="101" type="vehDist2" depart="101.00" departLane="best" departPos="random" departSpeed="random">
        <route edges="gneE7 gneE8 -gneE14 -gneE13"/>
    </vehicle>
    <vehicle id="103" type="vehDist2" depart="103.00" departLane="best" departPos="random" departSpeed="random">
        <route edges="gneE13 gneE14 -gneE8 -gneE7"/>
    </vehicle>
    <vehicle id="104" type="vehDist4" depart="104.00" departLane="best" departPos="random" departSpeed="random">
        <route edges="gneE12 -gneE8 -gneE7"/>
    </vehicle>
    <vehicle id="106" type="vehDist2" depart="106.00" departLane="best" departPos="random" departSpeed="random">
        <route edges="gneE11 gneE12 -gneE8 -gneE7"/>
    </vehicle>
    <vehicle id="107" type="vehDist1" depart="107.00" departLane="best" departPos="random" departSpeed="random">
        <route edges="gneE13 gneE14 -gneE10 -gneE9"/>
    </vehicle>
    <vehicle id="108" type="vehDist3" depart="108.00" departLane="best" departPos="random" departSpeed="random">
        <route edges="gneE11 gneE12 -gneE8 -gneE7"/>
    </vehicle>
    <vehicle id="109" type="vehDist0" depart="109.00" departLane="best" departPos="random" departSpeed="random">
        <route edges="gneE7 gneE8 -gneE10 -gneE9"/>
    </vehicle>
    <vehicle id="110" type="vehDist2" depart="110.00" departLane="best" departPos="random" departSpeed="random">
        <route edges="-gneE10 -gneE9"/>
    </vehicle>
    <vehicle id="111" type="vehDist3" depart="111.00" departLane="best" departPos="random" departSpeed="random">
        <route edges="gneE13 gneE14 -gneE12 -gneE11"/>
    </vehicle>
    <vehicle id="112" type="vehDist3" depart="112.00" departLane="best" departPos="random" departSpeed="random">
        <route edges="gneE9 gneE10 -gneE8 -gneE7"/>
    </vehicle>
    <vehicle id="113" type="vehDist1" depart="113.00" departLane="best" departPos="random" departSpeed="random">
        <route edges="gneE7 gneE8 -gneE12 -gneE11"/>
    </vehicle>
    <vehicle id="114" type="vehDist3" depart="114.00" departLane="best" departPos="random" departSpeed="random">
        <route edges="gneE9 gneE10 -gneE14 -gneE13"/>
    </vehicle>
    <vehicle id="115" type="vehDist0" depart="115.00" departLane="best" departPos="random" departSpeed="random">
        <route edges="gneE13 gneE14 -gneE10"/>
    </vehicle>
    <vehicle id="116" type="vehDist3" depart="116.00" departLane="best" departPos="random" departSpeed="random">
        <route edges="gneE13 gneE14 -gneE8 -gneE7"/>
    </vehicle>
    <vehicle id="118" type="vehDist4" depart="118.00" departLane="best" departPos="random" departSpeed="random">
        <route edges="gneE14 -gneE12 -gneE11"/>
    </vehicle>
    <vehicle id="120" type="vehDist2" depart="120.00" departLane="best" departPos="random" departSpeed="random">
        <route edges="gneE13 gneE14 -gneE10 -gneE9"/>
    </vehicle>
    <vehicle id="121" type="vehDist0" depart="121.00" departLane="best" departPos="random" departSpeed="random">
        <route edges="gneE13 gneE14 -gneE8 -gneE7"/>
    </vehicle>
    <vehicle id="122" type="vehDist1" depart="122.00" departLane="best" departPos="random" departSpeed="random">
        <route edges="gneE9 gneE10 -gneE8 -gneE7"/>
    </vehicle>
    <vehicle id="123" type="vehDist3" depart="123.00" departLane="best" departPos="random" departSpeed="random">
        <route edges="gneE9 gneE10 -gneE8 -gneE7"/>
    </vehicle>
    <vehicle id="124" type="vehDist4" depart="124.00" departLane="best" departPos="random" departSpeed="random">
        <route edges="gneE8 -gneE14 -gneE13"/>
    </vehicle>
    <vehicle id="125" type="vehDist4" depart="125.00" departLane="best" departPos="random" departSpeed="random">
        <route edges="gneE11 gneE12 -gneE10 -gneE9"/>
    </vehicle>
    <vehicle id="126" type="vehDist0" depart="126.00" departLane="best" departPos="random" departSpeed="random">
        <route edges="gneE7 gneE8 -gneE12 -gneE11"/>
    </vehicle>
    <vehicle id="128" type="vehDist1" depart="128.00" departLane="best" departPos="random" departSpeed="random">
        <route edges="gneE9 gneE10 -gneE14 -gneE13"/>
    </vehicle>
    <vehicle id="129" type="vehDist3" depart="129.00" departLane="best" departPos="random" departSpeed="random">
        <route edges="gneE12 -gneE10 -gneE9"/>
    </vehicle>
    <vehicle id="130" type="vehDist2" depart="130.00" departLane="best" departPos="random" departSpeed="random">
        <route edges="gneE9 gneE10 -gneE14 -gneE13"/>
    </vehicle>
    <vehicle id="131" type="vehDist2" depart="131.00" departLane="best" departPos="random" departSpeed="random">
        <route edges="gneE13 gneE14 -gneE10 -gneE9"/>
    </vehicle>
    <vehicle id="133" type="vehDist1" depart="133.00" departLane="best" departPos="random" departSpeed="random">
        <route edges="gneE11 gneE12 -gneE10 -gneE9"/>
    </vehicle>
    <vehicle id="135" type="vehDist2" depart="135.00" departLane="best" departPos="random" departSpeed="random">
        <route edges="gneE7 gneE8 -gneE10 -gneE9"/>
    </vehicle>
    <vehicle id="136" type="vehDist2" depart="136.00" departLane="best" departPos="random" departSpeed="random">
        <route edges="gneE11 gneE12 -gneE14 -gneE13"/>
    </vehicle>
    <vehicle id="137" type="vehDist0" depart="137.00" departLane="best" departPos="random" departSpeed="random">
        <route edges="gneE9 gneE10 -gneE14 -gneE13"/>
    </vehicle>
    <vehicle id="139" type="vehDist3" depart="139.00" departLane="best" departPos="random" departSpeed="random">
        <route edges="gneE13 gneE14 -gneE8 -gneE7"/>
    </vehicle>
    <vehicle id="140" type="vehDist4" depart="140.00" departLane="best" departPos="random" departSpeed="random">
        <route edges="gneE9 gneE10 -gneE8 -gneE7"/>
    </vehicle>
    <vehicle id="141" type="vehDist4" depart="141.00" departLane="best" departPos="random" departSpeed="random">
        <route edges="gneE13 gneE14 -gneE8 -gneE7"/>
    </vehicle>
    <vehicle id="142" type="vehDist2" depart="142.00" departLane="best" departPos="random" departSpeed="random">
        <route edges="gneE7 gneE8 -gneE14 -gneE13"/>
    </vehicle>
    <vehicle id="144" type="vehDist4" depart="144.00" departLane="best" departPos="random" departSpeed="random">
        <route edges="gneE13 gneE14 -gneE12 -gneE11"/>
    </vehicle>
    <vehicle id="145" type="vehDist4" depart="145.00" departLane="best" departPos="random" departSpeed="random">
        <route edges="gneE7 gneE8 -gneE14 -gneE13"/>
    </vehicle>
    <vehicle id="146" type="vehDist2" depart="146.00" departLane="best" departPos="random" departSpeed="random">
        <route edges="gneE9 gneE10 -gneE12 -gneE11"/>
    </vehicle>
    <vehicle id="147" type="vehDist4" depart="147.00" departLane="best" departPos="random" departSpeed="random">
        <route edges="gneE11 gneE12 -gneE8 -gneE7"/>
    </vehicle>
    <vehicle id="148" type="vehDist0" depart="148.00" departLane="best" departPos="random" departSpeed="random">
        <route edges="-gneE8 -gneE7"/>
    </vehicle>
    <vehicle id="152" type="vehDist1" depart="152.00" departLane="best" departPos="random" departSpeed="random">
        <route edges="gneE7 gneE8 -gneE14 -gneE13"/>
    </vehicle>
    <vehicle id="153" type="vehDist0" depart="153.00" departLane="best" departPos="random" departSpeed="random">
        <route edges="gneE9 gneE10 -gneE8 -gneE7"/>
    </vehicle>
    <vehicle id="154" type="vehDist3" depart="154.00" departLane="best" departPos="random" departSpeed="random">
        <route edges="gneE7 gneE8 -gneE12 -gneE11"/>
    </vehicle>
    <vehicle id="155" type="vehDist4" depart="155.00" departLane="best" departPos="random" departSpeed="random">
        <route edges="gneE13 gneE14 -gneE12 -gneE11"/>
    </vehicle>
    <vehicle id="156" type="vehDist0" depart="156.00" departLane="best" departPos="random" departSpeed="random">
        <route edges="gneE13 gneE14 -gneE8 -gneE7"/>
    </vehicle>
    <vehicle id="158" type="vehDist4" depart="158.00" departLane="best" departPos="random" departSpeed="random">
        <route edges="gneE11 gneE12 -gneE10 -gneE9"/>
    </vehicle>
    <vehicle id="159" type="vehDist2" depart="159.00" departLane="best" departPos="random" departSpeed="random">
        <route edges="gneE9 gneE10 -gneE12 -gneE11"/>
    </vehicle>
    <vehicle id="160" type="vehDist0" depart="160.00" departLane="best" departPos="random" departSpeed="random">
        <route edges="gneE7 gneE8"/>
    </vehicle>
    <vehicle id="161" type="vehDist4" depart="161.00" departLane="best" departPos="random" departSpeed="random">
        <route edges="gneE9 gneE10 -gneE14 -gneE13"/>
    </vehicle>
    <vehicle id="162" type="vehDist4" depart="162.00" departLane="best" departPos="random" departSpeed="random">
        <route edges="gneE10 -gneE12 -gneE11"/>
    </vehicle>
    <vehicle id="163" type="vehDist1" depart="163.00" departLane="best" departPos="random" departSpeed="random">
        <route edges="gneE13 gneE14 -gneE8 -gneE7"/>
    </vehicle>
    <vehicle id="164" type="vehDist4" depart="164.00" departLane="best" departPos="random" departSpeed="random">
        <route edges="gneE9 gneE10 -gneE12 -gneE11"/>
    </vehicle>
    <vehicle id="166" type="vehDist4" depart="166.00" departLane="best" departPos="random" departSpeed="random">
        <route edges="gneE9 gneE10 -gneE12 -gneE11"/>
    </vehicle>
    <vehicle id="167" type="vehDist3" depart="167.00" departLane="best" departPos="random" departSpeed="random">
        <route edges="gneE11 gneE12 -gneE14 -gneE13"/>
    </vehicle>
    <vehicle id="168" type="vehDist2" depart="168.00" departLane="best" departPos="random" departSpeed="random">
        <route edges="gneE9 gneE10 -gneE14 -gneE13"/>
    </vehicle>
    <vehicle id="173" type="vehDist2" depart="173.00" departLane="best" departPos="random" departSpeed="random">
        <route edges="gneE7 gneE8 -gneE12 -gneE11"/>
    </vehicle>
    <vehicle id="174" type="vehDist1" depart="174.00" departLane="best" departPos="random" departSpeed="random">
        <route edges="gneE7 gneE8 -gneE14 -gneE13"/>
    </vehicle>
    <vehicle id="179" type="vehDist0" depart="179.00" departLane="best" departPos="random" departSpeed="random">
        <route edges="gneE13 gneE14 -gneE10 -gneE9"/>
    </vehicle>
    <vehicle id="180" type="vehDist2" depart="180.00" departLane="best" departPos="random" departSpeed="random">
        <route edges="gneE11 gneE12"/>
    </vehicle>
    <vehicle id="181" type="vehDist0" depart="181.00" departLane="best" departPos="random" departSpeed="random">
        <route edges="gneE13 gneE14 -gneE12 -gneE11"/>
    </vehicle>
    <vehicle id="183" type="vehDist0" depart="183.00" departLane="best" departPos="random" departSpeed="random">
        <route edges="gneE9 gneE10 -gneE14 -gneE13"/>
    </vehicle>
    <vehicle id="184" type="vehDist0" depart="184.00" departLane="best" departPos="random" departSpeed="random">
        <route edges="gneE11 gneE12 -gneE8 -gneE7"/>
    </vehicle>
    <vehicle id="185" type="vehDist1" depart="185.00" departLane="best" departPos="random" departSpeed="random">
        <route edges="gneE11 gneE12 -gneE10 -gneE9"/>
    </vehicle>
    <vehicle id="186" type="vehDist1" depart="186.00" departLane="best" departPos="random" departSpeed="random">
        <route edges="gneE9 gneE10 -gneE12 -gneE11"/>
    </vehicle>
    <vehicle id="187" type="vehDist0" depart="187.00" departLane="best" departPos="random" departSpeed="random">
        <route edges="gneE11 gneE12 -gneE8 -gneE7"/>
    </vehicle>
    <vehicle id="189" type="vehDist1" depart="189.00" departLane="best" departPos="random" departSpeed="random">
        <route edges="gneE13 gneE14"/>
    </vehicle>
    <vehicle id="190" type="vehDist1" depart="190.00" departLane="best" departPos="random" departSpeed="random">
        <route edges="gneE7 gneE8 -gneE12 -gneE11"/>
    </vehicle>
    <vehicle id="191" type="vehDist4" depart="191.00" departLane="best" departPos="random" departSpeed="random">
        <route edges="gneE12 -gneE10 -gneE9"/>
    </vehicle>
    <vehicle id="192" type="vehDist2" depart="192.00" departLane="best" departPos="random" departSpeed="random">
        <route edges="gneE7 gneE8 -gneE10 -gneE9"/>
    </vehicle>
    <vehicle id="193" type="vehDist0" depart="193.00" departLane="best" departPos="random" departSpeed="random">
        <route edges="gneE7 gneE8 -gneE10 -gneE9"/>
    </vehicle>
    <vehicle id="195" type="vehDist4" depart="195.00" departLane="best" departPos="random" departSpeed="random">
        <route edges="gneE7 gneE8 -gneE12 -gneE11"/>
    </vehicle>
    <vehicle id="196" type="vehDist1" depart="196.00" departLane="best" departPos="random" departSpeed="random">
        <route edges="gneE12 -gneE14 -gneE13"/>
    </vehicle>
    <vehicle id="199" type="vehDist3" depart="199.00" departLane="best" departPos="random" departSpeed="random">
        <route edges="gneE11 gneE12 -gneE14 -gneE13"/>
    </vehicle>
    <vehicle id="200" type="vehDist2" depart="200.00" departLane="best" departPos="random" departSpeed="random">
        <route edges="gneE7 gneE8 -gneE10"/>
    </vehicle>
    <vehicle id="201" type="vehDist0" depart="201.00" departLane="best" departPos="random" departSpeed="random">
        <route edges="gneE13 gneE14 -gneE12 -gneE11"/>
    </vehicle>
    <vehicle id="205" type="vehDist3" depart="205.00" departLane="best" departPos="random" departSpeed="random">
        <route edges="gneE9 gneE10 -gneE12 -gneE11"/>
    </vehicle>
    <vehicle id="206" type="vehDist3" depart="206.00" departLane="best" departPos="random" departSpeed="random">
        <route edges="gneE7 gneE8 -gneE14 -gneE13"/>
    </vehicle>
    <vehicle id="207" type="vehDist0" depart="207.00" departLane="best" departPos="random" departSpeed="random">
        <route edges="gneE11 gneE12 -gneE14 -gneE13"/>
    </vehicle>
    <vehicle id="208" type="vehDist2" depart="208.00" departLane="best" departPos="random" departSpeed="random">
        <route edges="gneE9 gneE10 -gneE14 -gneE13"/>
    </vehicle>
    <vehicle id="210" type="vehDist2" depart="210.00" departLane="best" departPos="random" departSpeed="random">
        <route edges="gneE7 gneE8 -gneE10 -gneE9"/>
    </vehicle>
    <vehicle id="213" type="vehDist3" depart="213.00" departLane="best" departPos="random" departSpeed="random">
        <route edges="gneE9 gneE10 -gneE12 -gneE11"/>
    </vehicle>
    <vehicle id="216" type="vehDist0" depart="216.00" departLane="best" departPos="random" departSpeed="random">
        <route edges="gneE11 gneE12 -gneE10 -gneE9"/>
    </vehicle>
    <vehicle id="217" type="vehDist4" depart="217.00" departLane="best" departPos="random" departSpeed="random">
        <route edges="gneE11 gneE12 -gneE10 -gneE9"/>
    </vehicle>
    <vehicle id="219" type="vehDist0" depart="219.00" departLane="best" departPos="random" departSpeed="random">
        <route edges="gneE11 gneE12 -gneE10 -gneE9"/>
    </vehicle>
    <vehicle id="220" type="vehDist2" depart="220.00" departLane="best" departPos="random" departSpeed="random">
        <route edges="gneE11 gneE12 -gneE14 -gneE13"/>
    </vehicle>
    <vehicle id="222" type="vehDist2" depart="222.00" departLane="best" departPos="random" departSpeed="random">