<?xml version="1.0" encoding="UTF-8"?>

<!-- generated on 11/05/20 11:30:48 by Eclipse SUMO netedit Version 1.6.0
<configuration xmlns:xsi="http://www.w3.org/2001/XMLSchema-instance" xsi:noNamespaceSchemaLocation="http://sumo.dlr.de/xsd/netconvertConfiguration.xsd">

    <input>
        <sumo-net-file value="D:\Picasso\kmitl%20ce4\Project\Reinforcement_traffic_control\4cross_TLS\1_1Cross.net.xml"/>
    </input>

    <output>
        <output-file value="D:\Picasso\kmitl%20ce4\Project\Reinforcement_traffic_control\4cross_TLS\1_1Cross.net.xml"/>
    </output>

    <processing>
        <geometry.min-radius.fix.railways value="false"/>
        <geometry.max-grade.fix value="false"/>
        <offset.disable-normalization value="true"/>
        <lefthand value="true"/>
    </processing>

    <junctions>
        <no-turnarounds value="true"/>
        <junctions.corner-detail value="5"/>
        <junctions.limit-turn-speed value="5.5"/>
        <rectangular-lane-cut value="false"/>
    </junctions>

    <pedestrian>
        <walkingareas value="false"/>
    </pedestrian>

    <report>
        <aggregate-warnings value="5"/>
    </report>

</configuration>
-->

<net version="1.6" junctionCornerDetail="5" lefthand="true" limitTurnSpeed="5.50" xmlns:xsi="http://www.w3.org/2001/XMLSchema-instance" xsi:noNamespaceSchemaLocation="http://sumo.dlr.de/xsd/net_file.xsd">

    <location netOffset="0.00,0.00" convBoundary="-500.00,-300.00,500.00,700.00" origBoundary="-10000000000.00,-10000000000.00,10000000000.00,10000000000.00" projParameter="!"/>

    <edge id=":gneJ13_0" function="internal">
        <lane id=":gneJ13_0_0" index="0" speed="13.89" length="0.10" shape="-4.80,-280.00 -4.80,-280.00"/>
        <lane id=":gneJ13_0_1" index="1" speed="13.89" length="0.10" shape="-1.60,-280.00 -1.60,-280.00"/>
    </edge>
    <edge id=":gneJ13_2" function="internal">
        <lane id=":gneJ13_2_0" index="0" speed="13.89" length="0.10" shape="4.80,-280.00 4.80,-280.00"/>
        <lane id=":gneJ13_2_1" index="1" speed="13.89" length="0.10" shape="1.60,-280.00 1.60,-280.00"/>
    </edge>
    <edge id=":gneJ13_4" function="internal">
        <lane id=":gneJ13_4_0" index="0" speed="3.65" length="2.34" shape="1.60,-280.00 0.80,-281.20 0.00,-281.60"/>
    </edge>
    <edge id=":gneJ13_5" function="internal">
        <lane id=":gneJ13_5_0" index="0" speed="3.65" length="2.34" shape="0.00,-281.60 -0.80,-281.20 -1.60,-280.00"/>
    </edge>
    <edge id=":gneJ14_0" function="internal">
        <lane id=":gneJ14_0_0" index="0" speed="13.89" length="0.10" shape="480.00,195.20 480.00,195.20"/>
        <lane id=":gneJ14_0_1" index="1" speed="13.89" length="0.10" shape="480.00,198.40 480.00,198.40"/>
    </edge>
    <edge id=":gneJ14_2" function="internal">
        <lane id=":gneJ14_2_0" index="0" speed="13.89" length="0.10" shape="480.00,204.80 480.00,204.80"/>
        <lane id=":gneJ14_2_1" index="1" speed="13.89" length="0.10" shape="480.00,201.60 480.00,201.60"/>
    </edge>
    <edge id=":gneJ14_4" function="internal">
        <lane id=":gneJ14_4_0" index="0" speed="3.65" length="2.34" shape="480.00,201.60 481.20,200.80 481.60,200.00"/>
    </edge>
    <edge id=":gneJ14_5" function="internal">
        <lane id=":gneJ14_5_0" index="0" speed="3.65" length="2.34" shape="481.60,200.00 481.20,199.20 480.00,198.40"/>
    </edge>
    <edge id=":gneJ38_0" function="internal">
        <lane id=":gneJ38_0_0" index="0" speed="13.89" length="0.10" shape="-4.80,680.00 -4.80,680.00"/>
        <lane id=":gneJ38_0_1" index="1" speed="13.89" length="0.10" shape="-1.60,680.00 -1.60,680.00"/>
    </edge>
    <edge id=":gneJ38_2" function="internal">
        <lane id=":gneJ38_2_0" index="0" speed="3.65" length="2.34" shape="-1.60,680.00 -0.80,681.20 0.00,681.60"/>
    </edge>
    <edge id=":gneJ38_5" function="internal">
        <lane id=":gneJ38_5_0" index="0" speed="3.65" length="2.34" shape="0.00,681.60 0.80,681.20 1.60,680.00"/>
    </edge>
    <edge id=":gneJ38_3" function="internal">
        <lane id=":gneJ38_3_0" index="0" speed="13.89" length="0.10" shape="4.80,680.00 4.80,680.00"/>
        <lane id=":gneJ38_3_1" index="1" speed="13.89" length="0.10" shape="1.60,680.00 1.60,680.00"/>
    </edge>
    <edge id=":gneJ6_0" function="internal">
        <lane id=":gneJ6_0_0" index="0" speed="13.89" length="0.10" shape="-480.00,195.20 -480.00,195.20"/>
        <lane id=":gneJ6_0_1" index="1" speed="13.89" length="0.10" shape="-480.00,198.40 -480.00,198.40"/>
    </edge>
    <edge id=":gneJ6_2" function="internal">
        <lane id=":gneJ6_2_0" index="0" speed="3.65" length="2.34" shape="-480.00,198.40 -481.20,199.20 -481.60,200.00"/>
    </edge>
    <edge id=":gneJ6_5" function="internal">
        <lane id=":gneJ6_5_0" index="0" speed="3.65" length="2.34" shape="-481.60,200.00 -481.20,200.80 -480.00,201.60"/>
    </edge>
    <edge id=":gneJ6_3" function="internal">
        <lane id=":gneJ6_3_0" index="0" speed="13.89" length="0.10" shape="-480.00,204.80 -480.00,204.80"/>
        <lane id=":gneJ6_3_1" index="1" speed="13.89" length="0.10" shape="-480.00,201.60 -480.00,201.60"/>
    </edge>
    <edge id=":gneJ7_0" function="internal">
        <lane id=":gneJ7_0_0" index="0" speed="6.51" length="9.03" shape="-4.80,189.60 -5.15,192.05 -6.20,193.80 -7.95,194.85 -10.40,195.20"/>
    </edge>
    <edge id=":gneJ7_1" function="internal">
        <lane id=":gneJ7_1_0" index="0" speed="13.89" length="20.80" shape="-4.80,189.60 -4.80,210.40"/>
        <lane id=":gneJ7_1_1" index="1" speed="13.89" length="20.80" shape="-1.60,189.60 -1.60,210.40"/>
    </edge>
    <edge id=":gneJ7_3" function="internal">
        <lane id=":gneJ7_3_0" index="0" speed="9.26" length="19.35" shape="-1.60,189.60 -0.85,194.85 1.40,198.60 5.15,200.85 10.40,201.60"/>
    </edge>
    <edge id=":gneJ7_4" function="internal">
        <lane id=":gneJ7_4_0" index="0" speed="6.51" length="9.03" shape="10.40,195.20 7.95,194.85 6.20,193.80 5.15,192.05 4.80,189.60"/>
    </edge>
    <edge id=":gneJ7_5" function="internal">
        <lane id=":gneJ7_5_0" index="0" speed="13.89" length="20.80" shape="10.40,195.20 -10.40,195.20"/>
        <lane id=":gneJ7_5_1" index="1" speed="13.89" length="20.80" shape="10.40,198.40 -10.40,198.40"/>
    </edge>
    <edge id=":gneJ7_7" function="internal">
        <lane id=":gneJ7_7_0" index="0" speed="9.26" length="19.35" shape="10.40,198.40 5.15,199.15 1.40,201.40 -0.85,205.15 -1.60,210.40"/>
    </edge>
    <edge id=":gneJ7_8" function="internal">
        <lane id=":gneJ7_8_0" index="0" speed="6.51" length="9.03" shape="4.80,210.40 5.15,207.95 6.20,206.20 7.95,205.15 10.40,204.80"/>
    </edge>
    <edge id=":gneJ7_9" function="internal">
        <lane id=":gneJ7_9_0" index="0" speed="13.89" length="20.80" shape="4.80,210.40 4.80,189.60"/>
        <lane id=":gneJ7_9_1" index="1" speed="13.89" length="20.80" shape="1.60,210.40 1.60,189.60"/>
    </edge>
    <edge id=":gneJ7_11" function="internal">
        <lane id=":gneJ7_11_0" index="0" speed="9.26" length="19.35" shape="1.60,210.40 0.85,205.15 -1.40,201.40 -5.15,199.15 -10.40,198.40"/>
    </edge>
    <edge id=":gneJ7_12" function="internal">
        <lane id=":gneJ7_12_0" index="0" speed="6.51" length="9.03" shape="-10.40,204.80 -7.95,205.15 -6.20,206.20 -5.15,207.95 -4.80,210.40"/>
    </edge>
    <edge id=":gneJ7_13" function="internal">
        <lane id=":gneJ7_13_0" index="0" speed="13.89" length="20.80" shape="-10.40,204.80 10.40,204.80"/>
        <lane id=":gneJ7_13_1" index="1" speed="13.89" length="20.80" shape="-10.40,201.60 10.40,201.60"/>
    </edge>
    <edge id=":gneJ7_15" function="internal">
        <lane id=":gneJ7_15_0" index="0" speed="9.26" length="19.35" shape="-10.40,201.60 -5.15,200.85 -1.40,198.60 0.85,194.85 1.60,189.60"/>
    </edge>

    <edge id="gneE10" from="gneJ7" to="gneJ13" priority="-1" length="480.00">
        <lane id="gneE10_0" index="0" speed="13.89" length="480.00" shape="4.80,189.60 4.80,-280.00"/>
        <lane id="gneE10_1" index="1" speed="13.89" length="480.00" shape="1.60,189.60 1.60,-280.00"/>
    </edge>
    <edge id="gneE11" from="gneJ13" to="gneJ7" priority="-1" length="480.00">
        <lane id="gneE11_0" index="0" speed="13.89" length="480.00" shape="-4.80,-280.00 -4.80,189.60"/>
        <lane id="gneE11_1" index="1" speed="13.89" length="480.00" shape="-1.60,-280.00 -1.60,189.60"/>
    </edge>
    <edge id="gneE12" from="gneJ7" to="gneJ14" priority="-1" length="480.00">
        <lane id="gneE12_0" index="0" speed="13.89" length="480.00" shape="10.40,204.80 480.00,204.80"/>
        <lane id="gneE12_1" index="1" speed="13.89" length="480.00" shape="10.40,201.60 480.00,201.60"/>
    </edge>
    <edge id="gneE13" from="gneJ14" to="gneJ7" priority="-1" length="480.00">
        <lane id="gneE13_0" index="0" speed="13.89" length="480.00" shape="480.00,195.20 10.40,195.20"/>
        <lane id="gneE13_1" index="1" speed="13.89" length="480.00" shape="480.00,198.40 10.40,198.40"/>
    </edge>
    <edge id="gneE3" from="gneJ6" to="gneJ7" priority="-1" length="480.00">
        <lane id="gneE3_0" index="0" speed="13.89" length="480.00" shape="-480.00,204.80 -10.40,204.80"/>
        <lane id="gneE3_1" index="1" speed="13.89" length="480.00" shape="-480.00,201.60 -10.40,201.60"/>
    </edge>
    <edge id="gneE32" from="gneJ14" to="gneJ36" priority="-1">
        <lane id="gneE32_0" index="0" speed="13.89" length="20.00" shape="480.00,204.80 500.00,204.80"/>
        <lane id="gneE32_1" index="1" speed="13.89" length="20.00" shape="480.00,201.60 500.00,201.60"/>
    </edge>
    <edge id="gneE33" from="gneJ36" to="gneJ14" priority="-1">
        <lane id="gneE33_0" index="0" speed="13.89" length="20.00" shape="500.00,195.20 480.00,195.20"/>
        <lane id="gneE33_1" index="1" speed="13.89" length="20.00" shape="500.00,198.40 480.00,198.40"/>
    </edge>
    <edge id="gneE34" from="gneJ13" to="gneJ37" priority="-1">
        <lane id="gneE34_0" index="0" speed="13.89" length="20.00" shape="4.80,-280.00 4.80,-300.00"/>
        <lane id="gneE34_1" index="1" speed="13.89" length="20.00" shape="1.60,-280.00 1.60,-300.00"/>
    </edge>
    <edge id="gneE35" from="gneJ37" to="gneJ13" priority="-1">
        <lane id="gneE35_0" index="0" speed="13.89" length="20.00" shape="-4.80,-300.00 -4.80,-280.00"/>
        <lane id="gneE35_1" index="1" speed="13.89" length="20.00" shape="-1.60,-300.00 -1.60,-280.00"/>
    </edge>
    <edge id="gneE40" from="gneJ38" to="gneJ41" priority="-1">
        <lane id="gneE40_0" index="0" speed="13.89" length="20.00" shape="-4.80,680.00 -4.80,700.00"/>
        <lane id="gneE40_1" index="1" speed="13.89" length="20.00" shape="-1.60,680.00 -1.60,700.00"/>
    </edge>
    <edge id="gneE41" from="gneJ41" to="gneJ38" priority="-1">
        <lane id="gneE41_0" index="0" speed="13.89" length="20.00" shape="4.80,700.00 4.80,680.00"/>
        <lane id="gneE41_1" index="1" speed="13.89" length="20.00" shape="1.60,700.00 1.60,680.00"/>
    </edge>
    <edge id="gneE42" from="gneJ6" to="gneJ42" priority="-1">
        <lane id="gneE42_0" index="0" speed="13.89" length="20.00" shape="-480.00,195.20 -500.00,195.20"/>
        <lane id="gneE42_1" index="1" speed="13.89" length="20.00" shape="-480.00,198.40 -500.00,198.40"/>
    </edge>
    <edge id="gneE43" from="gneJ42" to="gneJ6" priority="-1">
        <lane id="gneE43_0" index="0" speed="13.89" length="20.00" shape="-500.00,204.80 -480.00,204.80"/>
        <lane id="gneE43_1" index="1" speed="13.89" length="20.00" shape="-500.00,201.60 -480.00,201.60"/>
    </edge>
    <edge id="gneE6" from="gneJ7" to="gneJ38" priority="-1" length="480.00">
        <lane id="gneE6_0" index="0" speed="13.89" length="480.00" shape="-4.80,210.40 -4.80,680.00"/>
        <lane id="gneE6_1" index="1" speed="13.89" length="480.00" shape="-1.60,210.40 -1.60,680.00"/>
    </edge>
    <edge id="gneE7" from="gneJ38" to="gneJ7" priority="-1" length="480.00">
        <lane id="gneE7_0" index="0" speed="13.89" length="480.00" shape="4.80,680.00 4.80,210.40"/>
        <lane id="gneE7_1" index="1" speed="13.89" length="480.00" shape="1.60,680.00 1.60,210.40"/>
    </edge>
    <edge id="gneE8" from="gneJ7" to="gneJ6" priority="-1" length="480.00">
        <lane id="gneE8_0" index="0" speed="13.89" length="480.00" shape="-10.40,195.20 -480.00,195.20"/>
        <lane id="gneE8_1" index="1" speed="13.89" length="480.00" shape="-10.40,198.40 -480.00,198.40"/>
    </edge>

    <tlLogic id="gneJ7" type="static" programID="0" offset="0">
        <phase duration="1"  state="rrrrrrrrrrrrrrrr"/>
    </tlLogic>

    <junction id="gneJ13" type="priority" x="0.00" y="-280.00" incLanes="gneE35_0 gneE35_1 gneE10_0 gneE10_1" intLanes=":gneJ13_0_0 :gneJ13_0_1 :gneJ13_2_0 :gneJ13_2_1 :gneJ13_5_0" shape="-6.40,-280.00 6.40,-280.00 -6.40,-280.00">
        <request index="0" response="00000" foes="10000" cont="0"/>
        <request index="1" response="00000" foes="10000" cont="0"/>
        <request index="2" response="00000" foes="00000" cont="0"/>
        <request index="3" response="00000" foes="00000" cont="0"/>
        <request index="4" response="00011" foes="00011" cont="1"/>
    </junction>
    <junction id="gneJ14" type="priority" x="480.00" y="200.00" incLanes="gneE33_0 gneE33_1 gneE12_0 gneE12_1" intLanes=":gneJ14_0_0 :gneJ14_0_1 :gneJ14_2_0 :gneJ14_2_1 :gneJ14_5_0" shape="480.00,193.60 480.00,206.40 480.00,193.60">
        <request index="0" response="00000" foes="10000" cont="0"/>
        <request index="1" response="00000" foes="10000" cont="0"/>
        <request index="2" response="00000" foes="00000" cont="0"/>
        <request index="3" response="00000" foes="00000" cont="0"/>
        <request index="4" response="00011" foes="00011" cont="1"/>
    </junction>
    <junction id="gneJ36" type="dead_end" x="500.00" y="200.00" incLanes="gneE32_0 gneE32_1" intLanes="" shape="500.00,200.00 500.00,206.40 500.00,200.00"/>
    <junction id="gneJ37" type="dead_end" x="0.00" y="-300.00" incLanes="gneE34_0 gneE34_1" intLanes="" shape="0.00,-300.00 6.40,-300.00 0.00,-300.00"/>
    <junction id="gneJ38" type="priority" x="0.00" y="680.00" incLanes="gneE6_0 gneE6_1 gneE41_0 gneE41_1" intLanes=":gneJ38_0_0 :gneJ38_0_1 :gneJ38_5_0 :gneJ38_3_0 :gneJ38_3_1" shape="-6.40,680.00 6.40,680.00 -6.40,680.00">
        <request index="0" response="00000" foes="00000" cont="0"/>
        <request index="1" response="00000" foes="00000" cont="0"/>
        <request index="2" response="11000" foes="11000" cont="1"/>
        <request index="3" response="00000" foes="00100" cont="0"/>
        <request index="4" response="00000" foes="00100" cont="0"/>
    </junction>
    <junction id="gneJ41" type="dead_end" x="0.00" y="700.00" incLanes="gneE40_0 gneE40_1" intLanes="" shape="0.00,700.00 -6.40,700.00 0.00,700.00"/>
    <junction id="gneJ42" type="dead_end" x="-500.00" y="200.00" incLanes="gneE42_0 gneE42_1" intLanes="" shape="-500.00,200.00 -500.00,193.60 -500.00,200.00"/>
    <junction id="gneJ6" type="priority" x="-480.00" y="200.00" incLanes="gneE8_0 gneE8_1 gneE43_0 gneE43_1" intLanes=":gneJ6_0_0 :gneJ6_0_1 :gneJ6_5_0 :gneJ6_3_0 :gneJ6_3_1" shape="-480.00,193.60 -480.00,206.40 -480.00,193.60">
        <request index="0" response="00000" foes="00000" cont="0"/>
        <request index="1" response="00000" foes="00000" cont="0"/>
        <request index="2" response="11000" foes="11000" cont="1"/>
        <request index="3" response="00000" foes="00100" cont="0"/>
        <request index="4" response="00000" foes="00100" cont="0"/>
    </junction>
    <junction id="gneJ7" type="traffic_light" x="0.00" y="200.00" incLanes="gneE11_0 gneE11_1 gneE13_0 gneE13_1 gneE7_0 gneE7_1 gneE3_0 gneE3_1" intLanes=":gneJ7_0_0 :gneJ7_1_0 :gneJ7_1_1 :gneJ7_3_0 :gneJ7_4_0 :gneJ7_5_0 :gneJ7_5_1 :gneJ7_7_0 :gneJ7_8_0 :gneJ7_9_0 :gneJ7_9_1 :gneJ7_11_0 :gneJ7_12_0 :gneJ7_13_0 :gneJ7_13_1 :gneJ7_15_0" shape="-6.40,189.60 6.40,189.60 6.84,191.82 7.40,192.60 8.18,193.16 9.18,193.49 10.40,193.60 10.40,206.40 8.18,206.84 7.40,207.40 6.84,208.18 6.51,209.18 6.40,210.40 -6.40,210.40 -6.84,208.18 -7.40,207.40 -8.18,206.84 -9.18,206.51 -10.40,206.40 -10.40,193.60 -8.18,193.16 -7.40,192.60 -6.84,191.82 -6.51,190.82">
        <request index="0"  response="0000000000000000" foes="0000000001100000" cont="0"/>
        <request index="1"  response="0000000000000000" foes="1111100011100000" cont="0"/>
        <request index="2"  response="0000000000000000" foes="1111100011100000" cont="0"/>
        <request index="3"  response="0000011000000000" foes="1110011011100000" cont="0"/>
        <request index="4"  response="0000011000000000" foes="0000011000000000" cont="0"/>
        <request index="5"  response="0000111000001111" foes="1000111000001111" cont="0"/>
        <request index="6"  response="0000111000001111" foes="1000111000001111" cont="0"/>
        <request index="7"  response="0110111000001110" foes="0110111000001110" cont="0"/>
        <request index="8"  response="0000000000000000" foes="0110000000000000" cont="0"/>
        <request index="9"  response="0000000000000000" foes="1110000011111000" cont="0"/>
        <request index="10" response="0000000000000000" foes="1110000011111000" cont="0"/>
        <request index="11" response="0000000000000110" foes="1110000011100110" cont="0"/>
        <request index="12" response="0000000000000110" foes="0000000000000110" cont="0"/>
        <request index="13" response="0000111100001110" foes="0000111110001110" cont="0"/>
        <request index="14" response="0000111100001110" foes="0000111110001110" cont="0"/>
        <request index="15" response="0000111001101110" foes="0000111001101110" cont="0"/>
    </junction>

    <junction id=":gneJ13_5_0" type="internal" x="0.00" y="-281.60" incLanes=":gneJ13_4_0 gneE35_0 gneE35_1" intLanes=":gneJ13_0_0 :gneJ13_0_1"/>
    <junction id=":gneJ14_5_0" type="internal" x="481.60" y="200.00" incLanes=":gneJ14_4_0 gneE33_0 gneE33_1" intLanes=":gneJ14_0_0 :gneJ14_0_1"/>
    <junction id=":gneJ38_5_0" type="internal" x="0.00" y="681.60" incLanes=":gneJ38_2_0 gneE41_0 gneE41_1" intLanes=":gneJ38_3_0 :gneJ38_3_1"/>
    <junction id=":gneJ6_5_0" type="internal" x="-481.60" y="200.00" incLanes=":gneJ6_2_0 gneE43_0 gneE43_1" intLanes=":gneJ6_3_0 :gneJ6_3_1"/>

    <connection from="gneE10" to="gneE34" fromLane="0" toLane="0" via=":gneJ13_2_0" dir="s" state="M"/>
    <connection from="gneE10" to="gneE34" fromLane="1" toLane="1" via=":gneJ13_2_1" dir="s" state="M"/>
    <connection from="gneE10" to="gneE11" fromLane="1" toLane="1" via=":gneJ13_4_0" dir="T" state="m"/>
    <connection from="gneE11" to="gneE8" fromLane="0" toLane="0" via=":gneJ7_0_0" tl="gneJ7" linkIndex="0" dir="l" state="O"/>
    <connection from="gneE11" to="gneE6" fromLane="0" toLane="0" via=":gneJ7_1_0" tl="gneJ7" linkIndex="1" dir="s" state="O"/>
    <connection from="gneE11" to="gneE6" fromLane="1" toLane="1" via=":gneJ7_1_1" tl="gneJ7" linkIndex="2" dir="s" state="O"/>
    <connection from="gneE11" to="gneE12" fromLane="1" toLane="1" via=":gneJ7_3_0" tl="gneJ7" linkIndex="3" dir="r" state="o"/>
    <connection from="gneE12" to="gneE32" fromLane="0" toLane="0" via=":gneJ14_2_0" dir="s" state="M"/>
    <connection from="gneE12" to="gneE32" fromLane="1" toLane="1" via=":gneJ14_2_1" dir="s" state="M"/>
    <connection from="gneE12" to="gneE13" fromLane="1" toLane="1" via=":gneJ14_4_0" dir="T" state="m"/>
    <connection from="gneE13" to="gneE10" fromLane="0" toLane="0" via=":gneJ7_4_0" tl="gneJ7" linkIndex="4" dir="l" state="o"/>
    <connection from="gneE13" to="gneE8" fromLane="0" toLane="0" via=":gneJ7_5_0" tl="gneJ7" linkIndex="5" dir="s" state="o"/>
    <connection from="gneE13" to="gneE8" fromLane="1" toLane="1" via=":gneJ7_5_1" tl="gneJ7" linkIndex="6" dir="s" state="o"/>
    <connection from="gneE13" to="gneE6" fromLane="1" toLane="1" via=":gneJ7_7_0" tl="gneJ7" linkIndex="7" dir="r" state="o"/>
    <connection from="gneE3" to="gneE6" fromLane="0" toLane="0" via=":gneJ7_12_0" tl="gneJ7" linkIndex="12" dir="l" state="o"/>
    <connection from="gneE3" to="gneE12" fromLane="0" toLane="0" via=":gneJ7_13_0" tl="gneJ7" linkIndex="13" dir="s" state="o"/>
    <connection from="gneE3" to="gneE12" fromLane="1" toLane="1" via=":gneJ7_13_1" tl="gneJ7" linkIndex="14" dir="s" state="o"/>
    <connection from="gneE3" to="gneE10" fromLane="1" toLane="1" via=":gneJ7_15_0" tl="gneJ7" linkIndex="15" dir="r" state="o"/>
    <connection from="gneE33" to="gneE13" fromLane="0" toLane="0" via=":gneJ14_0_0" dir="s" state="M"/>
    <connection from="gneE33" to="gneE13" fromLane="1" toLane="1" via=":gneJ14_0_1" dir="s" state="M"/>
    <connection from="gneE35" to="gneE11" fromLane="0" toLane="0" via=":gneJ13_0_0" dir="s" state="M"/>
    <connection from="gneE35" to="gneE11" fromLane="1" toLane="1" via=":gneJ13_0_1" dir="s" state="M"/>
    <connection from="gneE41" to="gneE7" fromLane="0" toLane="0" via=":gneJ38_3_0" dir="s" state="M"/>
    <connection from="gneE41" to="gneE7" fromLane="1" toLane="1" via=":gneJ38_3_1" dir="s" state="M"/>
    <connection from="gneE43" to="gneE3" fromLane="0" toLane="0" via=":gneJ6_3_0" dir="s" state="M"/>
    <connection from="gneE43" to="gneE3" fromLane="1" toLane="1" via=":gneJ6_3_1" dir="s" state="M"/>
    <connection from="gneE6" to="gneE40" fromLane="0" toLane="0" via=":gneJ38_0_0" dir="s" state="M"/>
    <connection from="gneE6" to="gneE40" fromLane="1" toLane="1" via=":gneJ38_0_1" dir="s" state="M"/>
    <connection from="gneE6" to="gneE7" fromLane="1" toLane="1" via=":gneJ38_2_0" dir="T" state="m"/>
    <connection from="gneE7" to="gneE12" fromLane="0" toLane="0" via=":gneJ7_8_0" tl="gneJ7" linkIndex="8" dir="l" state="O"/>
    <connection from="gneE7" to="gneE10" fromLane="0" toLane="0" via=":gneJ7_9_0" tl="gneJ7" linkIndex="9" dir="s" state="O"/>
    <connection from="gneE7" to="gneE10" fromLane="1" toLane="1" via=":gneJ7_9_1" tl="gneJ7" linkIndex="10" dir="s" state="O"/>
    <connection from="gneE7" to="gneE8" fromLane="1" toLane="1" via=":gneJ7_11_0" tl="gneJ7" linkIndex="11" dir="r" state="o"/>
    <connection from="gneE8" to="gneE42" fromLane="0" toLane="0" via=":gneJ6_0_0" dir="s" state="M"/>
    <connection from="gneE8" to="gneE42" fromLane="1" toLane="1" via=":gneJ6_0_1" dir="s" state="M"/>
    <connection from="gneE8" to="gneE3" fromLane="1" toLane="1" via=":gneJ6_2_0" dir="T" state="m"/>

    <connection from=":gneJ13_0" to="gneE11" fromLane="0" toLane="0" dir="s" state="M"/>
    <connection from=":gneJ13_0" to="gneE11" fromLane="1" toLane="1" dir="s" state="M"/>
    <connection from=":gneJ13_2" to="gneE34" fromLane="0" toLane="0" dir="s" state="M"/>
    <connection from=":gneJ13_2" to="gneE34" fromLane="1" toLane="1" dir="s" state="M"/>
    <connection from=":gneJ13_4" to="gneE11" fromLane="0" toLane="1" via=":gneJ13_5_0" dir="T" state="m"/>
    <connection from=":gneJ13_5" to="gneE11" fromLane="0" toLane="1" dir="T" state="M"/>
    <connection from=":gneJ14_0" to="gneE13" fromLane="0" toLane="0" dir="s" state="M"/>
    <connection from=":gneJ14_0" to="gneE13" fromLane="1" toLane="1" dir="s" state="M"/>
    <connection from=":gneJ14_2" to="gneE32" fromLane="0" toLane="0" dir="s" state="M"/>
    <connection from=":gneJ14_2" to="gneE32" fromLane="1" toLane="1" dir="s" state="M"/>
    <connection from=":gneJ14_4" to="gneE13" fromLane="0" toLane="1" via=":gneJ14_5_0" dir="T" state="m"/>
    <connection from=":gneJ14_5" to="gneE13" fromLane="0" toLane="1" dir="T" state="M"/>
    <connection from=":gneJ38_0" to="gneE40" fromLane="0" toLane="0" dir="s" state="M"/>
    <connection from=":gneJ38_0" to="gneE40" fromLane="1" toLane="1" dir="s" state="M"/>
    <connection from=":gneJ38_2" to="gneE7" fromLane="0" toLane="1" via=":gneJ38_5_0" dir="T" state="m"/>
    <connection from=":gneJ38_5" to="gneE7" fromLane="0" toLane="1" dir="T" state="M"/>
    <connection from=":gneJ38_3" to="gneE7" fromLane="0" toLane="0" dir="s" state="M"/>
    <connection from=":gneJ38_3" to="gneE7" fromLane="1" toLane="1" dir="s" state="M"/>
    <connection from=":gneJ6_0" to="gneE42" fromLane="0" toLane="0" dir="s" state="M"/>
    <connection from=":gneJ6_0" to="gneE42" fromLane="1" toLane="1" dir="s" state="M"/>
    <connection from=":gneJ6_2" to="gneE3" fromLane="0" toLane="1" via=":gneJ6_5_0" dir="T" state="m"/>
    <connection from=":gneJ6_5" to="gneE3" fromLane="0" toLane="1" dir="T" state="M"/>
    <connection from=":gneJ6_3" to="gneE3" fromLane="0" toLane="0" dir="s" state="M"/>
    <connection from=":gneJ6_3" to="gneE3" fromLane="1" toLane="1" dir="s" state="M"/>
    <connection from=":gneJ7_0" to="gneE8" fromLane="0" toLane="0" dir="l" state="M"/>
    <connection from=":gneJ7_1" to="gneE6" fromLane="0" toLane="0" dir="s" state="M"/>
    <connection from=":gneJ7_1" to="gneE6" fromLane="1" toLane="1" dir="s" state="M"/>
    <connection from=":gneJ7_3" to="gneE12" fromLane="0" toLane="1" dir="r" state="M"/>
    <connection from=":gneJ7_4" to="gneE10" fromLane="0" toLane="0" dir="l" state="M"/>
    <connection from=":gneJ7_5" to="gneE8" fromLane="0" toLane="0" dir="s" state="M"/>
    <connection from=":gneJ7_5" to="gneE8" fromLane="1" toLane="1" dir="s" state="M"/>
    <connection from=":gneJ7_7" to="gneE6" fromLane="0" toLane="1" dir="r" state="M"/>
    <connection from=":gneJ7_8" to="gneE12" fromLane="0" toLane="0" dir="l" state="M"/>
    <connection from=":gneJ7_9" to="gneE10" fromLane="0" toLane="0" dir="s" state="M"/>
    <connection from=":gneJ7_9" to="gneE10" fromLane="1" toLane="1" dir="s" state="M"/>
    <connection from=":gneJ7_11" to="gneE8" fromLane="0" toLane="1" dir="r" state="M"/>
    <connection from=":gneJ7_12" to="gneE6" fromLane="0" toLane="0" dir="l" state="M"/>
    <connection from=":gneJ7_13" to="gneE12" fromLane="0" toLane="0" dir="s" state="M"/>
    <connection from=":gneJ7_13" to="gneE12" fromLane="1" toLane="1" dir="s" state="M"/>
    <connection from=":gneJ7_15" to="gneE10" fromLane="0" toLane="1" dir="r" state="M"/>

</net>
