<?xml version="1.0" encoding="iso-8859-1"?>

<configuration xmlns:xsi="http://www.w3.org/2001/XMLSchema-instance" xsi:noNamespaceSchemaLocation="http://sumo.sf.net/xsd/sumoConfiguration.xsd">

    <input>
        <net-file value="1_1Cross.net.xml"/>
        <route-files value="trips.trips.xml"/>
    </input>

    <time>
        <begin value="0"/>
        <end value="500"/>
    </time>
	
    <gui_only>
        <gui-settings-file value="1_1Cross.settings.xml"/>
    </gui_only>



</configuration>