<?xml version="1.0" encoding="UTF-8"?>

<!-- generated on 10/17/20 14:32:58 by Eclipse SUMO duarouter Version 1.6.0
<configuration xmlns:xsi="http://www.w3.org/2001/XMLSchema-instance" xsi:noNamespaceSchemaLocation="http://sumo.dlr.de/xsd/duarouterConfiguration.xsd">

    <input>
        <net-file value="1_1Cross.net.xml"/>
        <route-files value="trips.trips.xml"/>
    </input>

    <output>
        <output-file value="trips.trips.xml.tmp"/>
        <write-trips value="true"/>
    </output>

    <time>
        <begin value="0"/>
        <end value="100000.0"/>
    </time>

    <report>
        <no-warnings value="true"/>
        <ignore-errors value="true"/>
        <no-step-log value="true"/>
    </report>

</configuration>
-->

<routes xmlns:xsi="http://www.w3.org/2001/XMLSchema-instance" xsi:noNamespaceSchemaLocation="http://sumo.dlr.de/xsd/routes_file.xsd">
    <trip id="0" depart="0.00" departLane="best" departPos="random" departSpeed="max" from="gneE33" to="gneE32"/>
    <trip id="1" depart="3.00" departLane="best" departPos="random" departSpeed="max" from="gneE35" to="gneE42"/>
    <trip id="2" depart="6.00" departLane="best" departPos="random" departSpeed="max" from="gneE41" to="gneE40"/>
    <trip id="3" depart="9.00" departLane="best" departPos="random" departSpeed="max" from="gneE41" to="gneE42"/>
    <trip id="4" depart="12.00" departLane="best" departPos="random" departSpeed="max" from="gneE33" to="gneE34"/>
    <trip id="5" depart="15.00" departLane="best" departPos="random" departSpeed="max" from="gneE41" to="gneE34"/>
    <trip id="6" depart="18.00" departLane="best" departPos="random" departSpeed="max" from="gneE41" to="gneE34"/>
    <trip id="7" depart="21.00" departLane="best" departPos="random" departSpeed="max" from="gneE43" to="gneE34"/>
    <trip id="8" depart="24.00" departLane="best" departPos="random" departSpeed="max" from="gneE35" to="gneE34"/>
    <trip id="9" depart="27.00" departLane="best" departPos="random" departSpeed="max" from="gneE35" to="gneE34"/>
    <trip id="10" depart="30.00" departLane="best" departPos="random" departSpeed="max" from="gneE35" to="gneE40"/>
    <trip id="11" depart="33.00" departLane="best" departPos="random" departSpeed="max" from="gneE41" to="gneE40"/>
    <trip id="12" depart="36.00" departLane="best" departPos="random" departSpeed="max" from="gneE33" to="gneE32"/>
    <trip id="13" depart="39.00" departLane="best" departPos="random" departSpeed="max" from="gneE35" to="gneE42"/>
    <trip id="14" depart="42.00" departLane="best" departPos="random" departSpeed="max" from="gneE35" to="gneE32"/>
    <trip id="15" depart="45.00" departLane="best" departPos="random" departSpeed="max" from="gneE41" to="gneE40"/>
    <trip id="16" depart="48.00" departLane="best" departPos="random" departSpeed="max" from="gneE43" to="gneE32"/>
    <trip id="17" depart="51.00" departLane="best" departPos="random" departSpeed="max" from="gneE33" to="gneE40"/>
    <trip id="18" depart="54.00" departLane="best" departPos="random" departSpeed="max" from="gneE43" to="gneE32"/>
    <trip id="19" depart="57.00" departLane="best" departPos="random" departSpeed="max" from="gneE41" to="gneE42"/>
    <trip id="20" depart="60.00" departLane="best" departPos="random" departSpeed="max" from="gneE41" to="gneE42"/>
    <trip id="21" depart="63.00" departLane="best" departPos="random" departSpeed="max" from="gneE41" to="gneE40"/>
    <trip id="22" depart="66.00" departLane="best" departPos="random" departSpeed="max" from="gneE43" to="gneE42"/>
    <trip id="23" depart="69.00" departLane="best" departPos="random" departSpeed="max" from="gneE43" to="gneE40"/>
    <trip id="24" depart="72.00" departLane="best" departPos="random" departSpeed="max" from="gneE41" to="gneE34"/>
    <trip id="25" depart="75.00" departLane="best" departPos="random" departSpeed="max" from="gneE41" to="gneE40"/>
    <trip id="26" depart="78.00" departLane="best" departPos="random" departSpeed="max" from="gneE41" to="gneE34"/>
    <trip id="27" depart="81.00" departLane="best" departPos="random" departSpeed="max" from="gneE33" to="gneE42"/>
    <trip id="28" depart="84.00" departLane="best" departPos="random" departSpeed="max" from="gneE41" to="gneE34"/>
    <trip id="29" depart="87.00" departLane="best" departPos="random" departSpeed="max" from="gneE35" to="gneE32"/>
    <trip id="30" depart="90.00" departLane="best" departPos="random" departSpeed="max" from="gneE35" to="gneE32"/>
    <trip id="31" depart="93.00" departLane="best" departPos="random" departSpeed="max" from="gneE43" to="gneE34"/>
    <trip id="32" depart="96.00" departLane="best" departPos="random" departSpeed="max" from="gneE41" to="gneE34"/>
    <trip id="33" depart="99.00" departLane="best" departPos="random" departSpeed="max" from="gneE41" to="gneE40"/>
    <trip id="34" depart="102.00" departLane="best" departPos="random" departSpeed="max" from="gneE35" to="gneE34"/>
    <trip id="35" depart="105.00" departLane="best" departPos="random" departSpeed="max" from="gneE41" to="gneE40"/>
    <trip id="36" depart="108.00" departLane="best" departPos="random" departSpeed="max" from="gneE41" to="gneE34"/>
    <trip id="37" depart="111.00" departLane="best" departPos="random" departSpeed="max" from="gneE33" to="gneE32"/>
    <trip id="38" depart="114.00" departLane="best" departPos="random" departSpeed="max" from="gneE35" to="gneE32"/>
    <trip id="39" depart="117.00" departLane="best" departPos="random" departSpeed="max" from="gneE33" to="gneE42"/>
    <trip id="40" depart="120.00" departLane="best" departPos="random" departSpeed="max" from="gneE35" to="gneE32"/>
    <trip id="41" depart="123.00" departLane="best" departPos="random" departSpeed="max" from="gneE41" to="gneE32"/>
    <trip id="42" depart="126.00" departLane="best" departPos="random" departSpeed="max" from="gneE33" to="gneE32"/>
    <trip id="43" depart="129.00" departLane="best" departPos="random" departSpeed="max" from="gneE43" to="gneE40"/>
    <trip id="44" depart="132.00" departLane="best" departPos="random" departSpeed="max" from="gneE33" to="gneE40"/>
    <trip id="45" depart="135.00" departLane="best" departPos="random" departSpeed="max" from="gneE43" to="gneE32"/>
    <trip id="46" depart="138.00" departLane="best" departPos="random" departSpeed="max" from="gneE33" to="gneE42"/>
    <trip id="47" depart="141.00" departLane="best" departPos="random" departSpeed="max" from="gneE41" to="gneE32"/>
    <trip id="48" depart="144.00" departLane="best" departPos="random" departSpeed="max" from="gneE35" to="gneE40"/>
    <trip id="49" depart="147.00" departLane="best" departPos="random" departSpeed="max" from="gneE41" to="gneE40"/>
    <trip id="50" depart="150.00" departLane="best" departPos="random" departSpeed="max" from="gneE33" to="gneE42"/>
    <trip id="51" depart="153.00" departLane="best" departPos="random" departSpeed="max" from="gneE41" to="gneE34"/>
    <trip id="52" depart="156.00" departLane="best" departPos="random" departSpeed="max" from="gneE43" to="gneE32"/>
    <trip id="53" depart="159.00" departLane="best" departPos="random" departSpeed="max" from="gneE35" to="gneE40"/>
    <trip id="54" depart="162.00" departLane="best" departPos="random" departSpeed="max" from="gneE43" to="gneE40"/>
    <trip id="55" depart="165.00" departLane="best" departPos="random" departSpeed="max" from="gneE35" to="gneE42"/>
    <trip id="56" depart="168.00" departLane="best" departPos="random" departSpeed="max" from="gneE41" to="gneE42"/>
    <trip id="57" depart="171.00" departLane="best" departPos="random" departSpeed="max" from="gneE41" to="gneE40"/>
    <trip id="58" depart="174.00" departLane="best" departPos="random" departSpeed="max" from="gneE33" to="gneE34"/>
    <trip id="59" depart="177.00" departLane="best" departPos="random" departSpeed="max" from="gneE35" to="gneE34"/>
    <trip id="60" depart="180.00" departLane="best" departPos="random" departSpeed="max" from="gneE41" to="gneE42"/>
    <trip id="61" depart="183.00" departLane="best" departPos="random" departSpeed="max" from="gneE33" to="gneE42"/>
    <trip id="62" depart="186.00" departLane="best" departPos="random" departSpeed="max" from="gneE33" to="gneE32"/>
    <trip id="63" depart="189.00" departLane="best" departPos="random" departSpeed="max" from="gneE41" to="gneE40"/>
    <trip id="64" depart="192.00" departLane="best" departPos="random" departSpeed="max" from="gneE35" to="gneE40"/>
    <trip id="65" depart="195.00" departLane="best" departPos="random" departSpeed="max" from="gneE35" to="gneE42"/>
    <trip id="66" depart="198.00" departLane="best" departPos="random" departSpeed="max" from="gneE41" to="gneE34"/>
    <trip id="67" depart="201.00" departLane="best" departPos="random" departSpeed="max" from="gneE33" to="gneE40"/>
    <trip id="68" depart="204.00" departLane="best" departPos="random" departSpeed="max" from="gneE41" to="gneE40"/>
    <trip id="69" depart="207.00" departLane="best" departPos="random" departSpeed="max" from="gneE41" to="gneE34"/>
    <trip id="70" depart="210.00" departLane="best" departPos="random" departSpeed="max" from="gneE35" to="gneE40"/>
    <trip id="71" depart="213.00" departLane="best" departPos="random" departSpeed="max" from="gneE41" to="gneE40"/>
    <trip id="72" depart="216.00" departLane="best" departPos="random" departSpeed="max" from="gneE35" to="gneE32"/>
    <trip id="73" depart="219.00" departLane="best" departPos="random" departSpeed="max" from="gneE35" to="gneE42"/>
    <trip id="74" depart="222.00" departLane="best" departPos="random" departSpeed="max" from="gneE35" to="gneE32"/>
    <trip id="75" depart="225.00" departLane="best" departPos="random" departSpeed="max" from="gneE33" to="gneE34"/>
    <trip id="76" depart="228.00" departLane="best" departPos="random" departSpeed="max" from="gneE35" to="gneE34"/>
    <trip id="77" depart="231.00" departLane="best" departPos="random" departSpeed="max" from="gneE43" to="gneE40"/>
    <trip id="78" depart="234.00" departLane="best" departPos="random" departSpeed="max" from="gneE33" to="gneE34"/>
    <trip id="79" depart="237.00" departLane="best" departPos="random" departSpeed="max" from="gneE33" to="gneE40"/>
    <trip id="80" depart="240.00" departLane="best" departPos="random" departSpeed="max" from="gneE35" to="gneE40"/>
    <trip id="81" depart="243.00" departLane="best" departPos="random" departSpeed="max" from="gneE33" to="gneE32"/>
    <trip id="82" depart="246.00" departLane="best" departPos="random" departSpeed="max" from="gneE35" to="gneE34"/>
    <trip id="83" depart="249.00" departLane="best" departPos="random" departSpeed="max" from="gneE41" to="gneE34"/>
    <trip id="84" depart="252.00" departLane="best" departPos="random" departSpeed="max" from="gneE33" to="gneE34"/>
    <trip id="85" depart="255.00" departLane="best" departPos="random" departSpeed="max" from="gneE33" to="gneE32"/>
    <trip id="86" depart="258.00" departLane="best" departPos="random" departSpeed="max" from="gneE33" to="gneE32"/>
    <trip id="87" depart="261.00" departLane="best" departPos="random" departSpeed="max" from="gneE41" to="gneE40"/>
    <trip id="88" depart="264.00" departLane="best" departPos="random" departSpeed="max" from="gneE43" to="gneE42"/>
    <trip id="89" depart="267.00" departLane="best" departPos="random" departSpeed="max" from="gneE43" to="gneE40"/>
    <trip id="90" depart="270.00" departLane="best" departPos="random" departSpeed="max" from="gneE33" to="gneE34"/>
    <trip id="91" depart="273.00" departLane="best" departPos="random" departSpeed="max" from="gneE35" to="gneE40"/>
    <trip id="92" depart="276.00" departLane="best" departPos="random" departSpeed="max" from="gneE33" to="gneE40"/>
    <trip id="93" depart="279.00" departLane="best" departPos="random" departSpeed="max" from="gneE35" to="gneE42"/>
    <trip id="94" depart="282.00" departLane="best" departPos="random" departSpeed="max" from="gneE41" to="gneE40"/>
    <trip id="95" depart="285.00" departLane="best" departPos="random" departSpeed="max" from="gneE35" to="gneE40"/>
    <trip id="96" depart="288.00" departLane="best" departPos="random" departSpeed="max" from="gneE35" to="gneE40"/>
    <trip id="97" depart="291.00" departLane="best" departPos="random" departSpeed="max" from="gneE41" to="gneE32"/>
    <trip id="98" depart="294.00" departLane="best" departPos="random" departSpeed="max" from="gneE43" to="gneE32"/>
    <trip id="99" depart="297.00" departLane="best" departPos="random" departSpeed="max" from="gneE43" to="gneE40"/>
    <trip id="100" depart="300.00" departLane="best" departPos="random" departSpeed="max" from="gneE43" to="gneE32"/>
    <trip id="101" depart="303.00" departLane="best" departPos="random" departSpeed="max" from="gneE35" to="gneE32"/>
    <trip id="102" depart="306.00" departLane="best" departPos="random" departSpeed="max" from="gneE35" to="gneE34"/>
    <trip id="103" depart="309.00" departLane="best" departPos="random" departSpeed="max" from="gneE41" to="gneE42"/>
    <trip id="104" depart="312.00" departLane="best" departPos="random" departSpeed="max" from="gneE35" to="gneE32"/>
    <trip id="105" depart="315.00" departLane="best" departPos="random" departSpeed="max" from="gneE43" to="gneE42"/>
    <trip id="106" depart="318.00" departLane="best" departPos="random" departSpeed="max" from="gneE41" to="gneE32"/>
    <trip id="107" depart="321.00" departLane="best" departPos="random" departSpeed="max" from="gneE41" to="gneE40"/>
    <trip id="108" depart="324.00" departLane="best" departPos="random" departSpeed="max" from="gneE43" to="gneE34"/>
    <trip id="109" depart="327.00" departLane="best" departPos="random" departSpeed="max" from="gneE43" to="gneE34"/>
    <trip id="110" depart="330.00" departLane="best" departPos="random" departSpeed="max" from="gneE33" to="gneE42"/>
    <trip id="111" depart="333.00" departLane="best" departPos="random" departSpeed="max" from="gneE41" to="gneE42"/>
    <trip id="112" depart="336.00" departLane="best" departPos="random" departSpeed="max" from="gneE35" to="gneE42"/>
    <trip id="113" depart="339.00" departLane="best" departPos="random" departSpeed="max" from="gneE43" to="gneE32"/>
    <trip id="114" depart="342.00" departLane="best" departPos="random" departSpeed="max" from="gneE35" to="gneE32"/>
    <trip id="115" depart="345.00" departLane="best" departPos="random" departSpeed="max" from="gneE41" to="gneE40"/>
    <trip id="116" depart="348.00" departLane="best" departPos="random" departSpeed="max" from="gneE43" to="gneE32"/>
    <trip id="117" depart="351.00" departLane="best" departPos="random" departSpeed="max" from="gneE43" to="gneE42"/>
    <trip id="118" depart="354.00" departLane="best" departPos="random" departSpeed="max" from="gneE41" to="gneE40"/>
    <trip id="119" depart="357.00" departLane="best" departPos="random" departSpeed="max" from="gneE41" to="gneE42"/>
    <trip id="120" depart="360.00" departLane="best" departPos="random" departSpeed="max" from="gneE35" to="gneE42"/>
    <trip id="121" depart="363.00" departLane="best" departPos="random" departSpeed="max" from="gneE41" to="gneE42"/>
    <trip id="122" depart="366.00" departLane="best" departPos="random" departSpeed="max" from="gneE41" to="gneE34"/>
    <trip id="123" depart="369.00" departLane="best" departPos="random" departSpeed="max" from="gneE35" to="gneE40"/>
    <trip id="124" depart="372.00" departLane="best" departPos="random" departSpeed="max" from="gneE43" to="gneE40"/>
    <trip id="125" depart="375.00" departLane="best" departPos="random" departSpeed="max" from="gneE35" to="gneE42"/>
    <trip id="126" depart="378.00" departLane="best" departPos="random" departSpeed="max" from="gneE35" to="gneE34"/>
    <trip id="127" depart="381.00" departLane="best" departPos="random" departSpeed="max" from="gneE33" to="gneE40"/>
    <trip id="128" depart="384.00" departLane="best" departPos="random" departSpeed="max" from="gneE35" to="gneE34"/>
    <trip id="129" depart="387.00" departLane="best" departPos="random" departSpeed="max" from="gneE43" to="gneE32"/>
    <trip id="130" depart="390.00" departLane="best" departPos="random" departSpeed="max" from="gneE43" to="gneE32"/>
    <trip id="131" depart="393.00" departLane="best" departPos="random" departSpeed="max" from="gneE43" to="gneE32"/>
    <trip id="132" depart="396.00" departLane="best" departPos="random" departSpeed="max" from="gneE41" to="gneE40"/>
    <trip id="133" depart="399.00" departLane="best" departPos="random" departSpeed="max" from="gneE41" to="gneE42"/>
    <trip id="134" depart="402.00" departLane="best" departPos="random" departSpeed="max" from="gneE41" to="gneE34"/>
    <trip id="135" depart="405.00" departLane="best" departPos="random" departSpeed="max" from="gneE43" to="gneE34"/>
    <trip id="136" depart="408.00" departLane="best" departPos="random" departSpeed="max" from="gneE35" to="gneE32"/>
    <trip id="137" depart="411.00" departLane="best" departPos="random" departSpeed="max" from="gneE33" to="gneE34"/>
    <trip id="138" depart="414.00" departLane="best" departPos="random" departSpeed="max" from="gneE43" to="gneE42"/>
    <trip id="139" depart="417.00" departLane="best" departPos="random" departSpeed="max" from="gneE35" to="gneE42"/>
    <trip id="140" depart="420.00" departLane="best" departPos="random" departSpeed="max" from="gneE35" to="gneE32"/>
    <trip id="141" depart="423.00" departLane="best" departPos="random" departSpeed="max" from="gneE43" to="gneE34"/>
    <trip id="142" depart="426.00" departLane="best" departPos="random" departSpeed="max" from="gneE41" to="gneE40"/>
    <trip id="143" depart="429.00" departLane="best" departPos="random" departSpeed="max" from="gneE43" to="gneE40"/>
    <trip id="144" depart="432.00" departLane="best" departPos="random" departSpeed="max" from="gneE33" to="gneE32"/>
    <trip id="145" depart="435.00" departLane="best" departPos="random" departSpeed="max" from="gneE35" to="gneE34"/>
    <trip id="146" depart="438.00" departLane="best" departPos="random" departSpeed="max" from="gneE33" to="gneE42"/>
    <trip id="147" depart="441.00" departLane="best" departPos="random" departSpeed="max" from="gneE41" to="gneE34"/>
    <trip id="148" depart="444.00" departLane="best" departPos="random" departSpeed="max" from="gneE35" to="gneE42"/>
    <trip id="149" depart="447.00" departLane="best" departPos="random" departSpeed="max" from="gneE43" to="gneE34"/>
    <trip id="150" depart="450.00" departLane="best" departPos="random" departSpeed="max" from="gneE41" to="gneE42"/>
    <trip id="151" depart="453.00" departLane="best" departPos="random" departSpeed="max" from="gneE41" to="gneE40"/>
    <trip id="152" depart="456.00" departLane="best" departPos="random" departSpeed="max" from="gneE43" to="gneE32"/>
    <trip id="153" depart="459.00" departLane="best" departPos="random" departSpeed="max" from="gneE43" to="gneE42"/>
    <trip id="154" depart="462.00" departLane="best" departPos="random" departSpeed="max" from="gneE35" to="gneE34"/>
    <trip id="155" depart="465.00" departLane="best" departPos="random" departSpeed="max" from="gneE35" to="gneE40"/>
    <trip id="156" depart="468.00" departLane="best" departPos="random" departSpeed="max" from="gneE35" to="gneE40"/>
    <trip id="157" depart="471.00" departLane="best" departPos="random" departSpeed="max" from="gneE43" to="gneE42"/>
    <trip id="158" depart="474.00" departLane="best" departPos="random" departSpeed="max" from="gneE41" to="gneE42"/>
    <trip id="159" depart="477.00" departLane="best" departPos="random" departSpeed="max" from="gneE35" to="gneE32"/>
    <trip id="160" depart="480.00" departLane="best" departPos="random" departSpeed="max" from="gneE33" to="gneE34"/>
    <trip id="161" depart="483.00" departLane="best" departPos="random" departSpeed="max" from="gneE43" to="gneE34"/>
    <trip id="162" depart="486.00" departLane="best" departPos="random" departSpeed="max" from="gneE35" to="gneE40"/>
    <trip id="163" depart="489.00" departLane="best" departPos="random" departSpeed="max" from="gneE33" to="gneE40"/>
    <trip id="164" depart="492.00" departLane="best" departPos="random" departSpeed="max" from="gneE43" to="gneE34"/>
    <trip id="165" depart="495.00" departLane="best" departPos="random" departSpeed="max" from="gneE41" to="gneE34"/>
    <trip id="166" depart="498.00" departLane="best" departPos="random" departSpeed="max" from="gneE41" to="gneE32"/>
    <trip id="167" depart="501.00" departLane="best" departPos="random" departSpeed="max" from="gneE35" to="gneE32"/>
    <trip id="168" depart="504.00" departLane="best" departPos="random" departSpeed="max" from="gneE43" to="gneE42"/>
    <trip id="169" depart="507.00" departLane="best" departPos="random" departSpeed="max" from="gneE43" to="gneE42"/>
    <trip id="170" depart="510.00" departLane="best" departPos="random" departSpeed="max" from="gneE41" to="gneE34"/>
    <trip id="171" depart="513.00" departLane="best" departPos="random" departSpeed="max" from="gneE43" to="gneE40"/>
    <trip id="172" depart="516.00" departLane="best" departPos="random" departSpeed="max" from="gneE41" to="gneE42"/>
    <trip id="173" depart="519.00" departLane="best" departPos="random" departSpeed="max" from="gneE33" to="gneE34"/>
    <trip id="174" depart="522.00" departLane="best" departPos="random" departSpeed="max" from="gneE43" to="gneE42"/>
    <trip id="175" depart="525.00" departLane="best" departPos="random" departSpeed="max" from="gneE41" to="gneE42"/>
    <trip id="176" depart="528.00" departLane="best" departPos="random" departSpeed="max" from="gneE33" to="gneE32"/>
    <trip id="177" depart="531.00" departLane="best" departPos="random" departSpeed="max" from="gneE33" to="gneE34"/>
    <trip id="178" depart="534.00" departLane="best" departPos="random" departSpeed="max" from="gneE43" to="gneE40"/>
    <trip id="179" depart="537.00" departLane="best" departPos="random" departSpeed="max" from="gneE43" to="gneE32"/>
    <trip id="180" depart="540.00" departLane="best" departPos="random" departSpeed="max" from="gneE33" to="gneE34"/>
    <trip id="181" depart="543.00" departLane="best" departPos="random" departSpeed="max" from="gneE35" to="gneE34"/>
    <trip id="182" depart="546.00" departLane="best" departPos="random" departSpeed="max" from="gneE43" to="gneE42"/>
    <trip id="183" depart="549.00" departLane="best" departPos="random" departSpeed="max" from="gneE43" to="gneE34"/>
    <trip id="184" depart="552.00" departLane="best" departPos="random" departSpeed="max" from="gneE41" to="gneE32"/>
    <trip id="185" depart="555.00" departLane="best" departPos="random" departSpeed="max" from="gneE43" to="gneE40"/>
    <trip id="186" depart="558.00" departLane="best" departPos="random" departSpeed="max" from="gneE33" to="gneE32"/>
    <trip id="187" depart="561.00" departLane="best" departPos="random" departSpeed="max" from="gneE41" to="gneE32"/>
    <trip id="188" depart="564.00" departLane="best" departPos="random" departSpeed="max" from="gneE35" to="gneE40"/>
    <trip id="189" depart="567.00" departLane="best" departPos="random" departSpeed="max" from="gneE41" to="gneE34"/>
    <trip id="190" depart="570.00" departLane="best" departPos="random" departSpeed="max" from="gneE35" to="gneE34"/>
    <trip id="191" depart="573.00" departLane="best" departPos="random" departSpeed="max" from="gneE41" to="gneE34"/>
    <trip id="192" depart="576.00" departLane="best" departPos="random" departSpeed="max" from="gneE43" to="gneE32"/>
    <trip id="193" depart="579.00" departLane="best" departPos="random" departSpeed="max" from="gneE35" to="gneE40"/>
    <trip id="194" depart="582.00" departLane="best" departPos="random" departSpeed="max" from="gneE35" to="gneE34"/>
    <trip id="195" depart="585.00" departLane="best" departPos="random" departSpeed="max" from="gneE35" to="gneE40"/>
    <trip id="196" depart="588.00" departLane="best" departPos="random" departSpeed="max" from="gneE33" to="gneE32"/>
    <trip id="197" depart="591.00" departLane="best" departPos="random" departSpeed="max" from="gneE41" to="gneE34"/>
    <trip id="198" depart="594.00" departLane="best" departPos="random" departSpeed="max" from="gneE41" to="gneE34"/>
    <trip id="199" depart="597.00" departLane="best" departPos="random" departSpeed="max" from="gneE41" to="gneE40"/>
    <trip id="200" depart="600.00" departLane="best" departPos="random" departSpeed="max" from="gneE43" to="gneE42"/>
    <trip id="201" depart="603.00" departLane="best" departPos="random" departSpeed="max" from="gneE41" to="gneE42"/>
    <trip id="202" depart="606.00" departLane="best" departPos="random" departSpeed="max" from="gneE43" to="gneE34"/>
    <trip id="203" depart="609.00" departLane="best" departPos="random" departSpeed="max" from="gneE41" to="gneE34"/>
    <trip id="204" depart="612.00" departLane="best" departPos="random" departSpeed="max" from="gneE41" to="gneE34"/>
    <trip id="205" depart="615.00" departLane="best" departPos="random" departSpeed="max" from="gneE35" to="gneE42"/>
    <trip id="206" depart="618.00" departLane="best" departPos="random" departSpeed="max" from="gneE33" to="gneE32"/>
    <trip id="207" depart="621.00" departLane="best" departPos="random" departSpeed="max" from="gneE41" to="gneE40"/>
    <trip id="208" depart="624.00" departLane="best" departPos="random" departSpeed="max" from="gneE43" to="gneE42"/>
    <trip id="209" depart="627.00" departLane="best" departPos="random" departSpeed="max" from="gneE35" to="gneE32"/>
    <trip id="210" depart="630.00" departLane="best" departPos="random" departSpeed="max" from="gneE33" to="gneE40"/>
    <trip id="211" depart="633.00" departLane="best" departPos="random" departSpeed="max" from="gneE35" to="gneE40"/>
    <trip id="212" depart="636.00" departLane="best" departPos="random" departSpeed="max" from="gneE35" to="gneE34"/>
    <trip id="213" depart="639.00" departLane="best" departPos="random" departSpeed="max" from="gneE35" to="gneE32"/>
    <trip id="214" depart="642.00" departLane="best" departPos="random" departSpeed="max" from="gneE35" to="gneE32"/>
    <trip id="215" depart="645.00" departLane="best" departPos="random" departSpeed="max" from="gneE33" to="gneE40"/>
    <trip id="216" depart="648.00" departLane="best" departPos="random" departSpeed="max" from="gneE35" to="gneE40"/>
    <trip id="217" depart="651.00" departLane="best" departPos="random" departSpeed="max" from="gneE35" to="gneE40"/>
    <trip id="218" depart="654.00" departLane="best" departPos="random" departSpeed="max" from="gneE41" to="gneE32"/>
    <trip id="219" depart="657.00" departLane="best" departPos="random" departSpeed="max" from="gneE33" to="gneE32"/>
    <trip id="220" depart="660.00" departLane="best" departPos="random" departSpeed="max" from="gneE43" to="gneE42"/>
    <trip id="221" depart="663.00" departLane="best" departPos="random" departSpeed="max" from="gneE43" to="gneE40"/>
    <trip id="222" depart="666.00" departLane="best" departPos="random" departSpeed="max" from="gneE43" to="gneE40"/>
    <trip id="223" depart="669.00" departLane="best" departPos="random" departSpeed="max" from="gneE35" to="gneE42"/>
    <trip id="224" depart="672.00" departLane="best" departPos="random" departSpeed="max" from="gneE41" to="gneE32"/>
    <trip id="225" depart="675.00" departLane="best" departPos="random" departSpeed="max" from="gneE43" to="gneE42"/>
    <trip id="226" depart="678.00" departLane="best" departPos="random" departSpeed="max" from="gneE41" to="gneE42"/>
    <trip id="227" depart="681.00" departLane="best" departPos="random" departSpeed="max" from="gneE35" to="gneE40"/>
    <trip id="228" depart="684.00" departLane="best" departPos="random" departSpeed="max" from="gneE35" to="gneE32"/>
    <trip id="229" depart="687.00" departLane="best" departPos="random" departSpeed="max" from="gneE43" to="gneE40"/>
    <trip id="230" depart="690.00" departLane="best" departPos="random" departSpeed="max" from="gneE33" to="gneE32"/>
    <trip id="231" depart="693.00" departLane="best" departPos="random" departSpeed="max" from="gneE41" to="gneE32"/>
    <trip id="232" depart="696.00" departLane="best" departPos="random" departSpeed="max" from="gneE33" to="gneE34"/>
    <trip id="233" depart="699.00" departLane="best" departPos="random" departSpeed="max" from="gneE33" to="gneE32"/>
    <trip id="234" depart="702.00" departLane="best" departPos="random" departSpeed="max" from="gneE43" to="gneE42"/>
    <trip id="235" depart="705.00" departLane="best" departPos="random" departSpeed="max" from="gneE33" to="gneE42"/>
    <trip id="236" depart="708.00" departLane="best" departPos="random" departSpeed="max" from="gneE43" to="gneE40"/>
    <trip id="237" depart="711.00" departLane="best" departPos="random" departSpeed="max" from="gneE35" to="gneE40"/>
    <trip id="238" depart="714.00" departLane="best" departPos="random" departSpeed="max" from="gneE35" to="gneE42"/>
    <trip id="239" depart="717.00" departLane="best" departPos="random" departSpeed="max" from="gneE33" to="gneE34"/>
    <trip id="240" depart="720.00" departLane="best" departPos="random" departSpeed="max" from="gneE35" to="gneE32"/>
    <trip id="241" depart="723.00" departLane="best" departPos="random" departSpeed="max" from="gneE41" to="gneE32"/>
    <trip id="242" depart="726.00" departLane="best" departPos="random" departSpeed="max" from="gneE43" to="gneE42"/>
    <trip id="243" depart="729.00" departLane="best" departPos="random" departSpeed="max" from="gneE43" to="gneE32"/>
    <trip id="244" depart="732.00" departLane="best" departPos="random" departSpeed="max" from="gneE35" to="gneE42"/>