<?xml version="1.0" encoding="UTF-8"?>

<!-- generated on 03/16/21 23:56:59 by Eclipse SUMO duarouter Version 1.8.0
<configuration xmlns:xsi="http://www.w3.org/2001/XMLSchema-instance" xsi:noNamespaceSchemaLocation="http://sumo.dlr.de/xsd/duarouterConfiguration.xsd">

    <input>
        <net-file value="../4-way.net.xml"/>
        <additional-files value="vTypeDistributions.add.xml"/>
        <route-files value="trips.trips.xml"/>
    </input>

    <output>
        <output-file value="trips.trips.xml.tmp"/>
        <write-trips value="true"/>
    </output>

    <time>
        <begin value="0"/>
        <end value="1000.0"/>
    </time>

    <report>
        <no-warnings value="true"/>
        <ignore-errors value="true"/>
        <no-step-log value="true"/>
    </report>

</configuration>
-->

<routes xmlns:xsi="http://www.w3.org/2001/XMLSchema-instance" xsi:noNamespaceSchemaLocation="http://sumo.dlr.de/xsd/routes_file.xsd">
    <vType id="vehDist4" length="4.70" minGap="1.30" maxSpeed="15.27" vClass="passenger" carFollowModel="Krauss" accel="1.737" sigma="0.574"/>
    <trip id="0" type="vehDist4" depart="0.00" departLane="best" departPos="random" departSpeed="random" from="gneE11" to="-gneE13"/>
    <vType id="vehDist3" length="4.70" minGap="1.30" maxSpeed="33.08" vClass="passenger" carFollowModel="Krauss" accel="2.593" sigma="0.407"/>
    <trip id="1" type="vehDist3" depart="1.00" departLane="best" departPos="random" departSpeed="random" from="gneE7" to="-gneE13"/>
    <vType id="vehDist0" length="4.70" minGap="1.30" maxSpeed="31.50" vClass="passenger" carFollowModel="Krauss" accel="1.801" sigma="0.549"/>
    <trip id="2" type="vehDist0" depart="2.00" departLane="best" departPos="random" departSpeed="random" from="gneE7" to="-gneE9"/>
    <vType id="vehDist2" length="4.70" minGap="1.30" maxSpeed="19.82" vClass="passenger" carFollowModel="Krauss" accel="2.695" sigma="0.266"/>
    <trip id="4" type="vehDist2" depart="4.00" departLane="best" departPos="random" departSpeed="random" from="gneE7" to="-gneE11"/>
    <trip id="5" type="vehDist0" depart="5.00" departLane="best" departPos="random" departSpeed="random" from="gneE7" to="-gneE11"/>
    <trip id="6" type="vehDist3" depart="6.00" departLane="best" departPos="random" departSpeed="random" from="gneE11" to="-gneE7"/>
    <trip id="8" type="vehDist2" depart="8.00" departLane="best" departPos="random" departSpeed="random" from="gneE11" to="-gneE13"/>
    <trip id="9" type="vehDist3" depart="9.00" departLane="best" departPos="random" departSpeed="random" from="gneE9" to="-gneE13"/>
    <trip id="11" type="vehDist3" depart="11.00" departLane="best" departPos="random" departSpeed="random" from="gneE7" to="-gneE9"/>
    <trip id="13" type="vehDist2" depart="13.00" departLane="best" departPos="random" departSpeed="random" from="gneE11" to="-gneE13"/>
    <trip id="16" type="vehDist0" depart="16.00" departLane="best" departPos="random" departSpeed="random" from="gneE9" to="-gneE11"/>
    <trip id="17" type="vehDist4" depart="17.00" departLane="best" departPos="random" departSpeed="random" from="gneE7" to="-gneE9"/>
    <vType id="vehDist1" length="4.70" minGap="1.30" maxSpeed="26.40" vClass="passenger" carFollowModel="Krauss" accel="1.610" sigma="0.472"/>
    <trip id="18" type="vehDist1" depart="18.00" departLane="best" departPos="random" departSpeed="random" from="gneE7" to="-gneE9"/>
    <trip id="19" type="vehDist3" depart="19.00" departLane="best" departPos="random" departSpeed="random" from="gneE13" to="-gneE11"/>
    <trip id="20" type="vehDist0" depart="20.00" departLane="best" departPos="random" departSpeed="random" from="gneE9" to="-gneE13"/>
    <trip id="21" type="vehDist2" depart="21.00" departLane="best" departPos="random" departSpeed="random" from="gneE13" to="-gneE9"/>
    <trip id="22" type="vehDist1" depart="22.00" departLane="best" departPos="random" departSpeed="random" from="gneE9" to="-gneE13"/>
    <trip id="24" type="vehDist4" depart="24.00" departLane="best" departPos="random" departSpeed="random" from="gneE11" to="-gneE13"/>
    <trip id="25" type="vehDist4" depart="25.00" departLane="best" departPos="random" departSpeed="random" from="gneE7" to="-gneE13"/>
    <trip id="28" type="vehDist2" depart="28.00" departLane="best" departPos="random" departSpeed="random" from="gneE7" to="-gneE13"/>
    <trip id="29" type="vehDist1" depart="29.00" departLane="best" departPos="random" departSpeed="random" from="gneE13" to="-gneE7"/>
    <trip id="30" type="vehDist0" depart="30.00" departLane="best" departPos="random" departSpeed="random" from="gneE11" to="-gneE13"/>
    <trip id="31" type="vehDist1" depart="31.00" departLane="best" departPos="random" departSpeed="random" from="gneE7" to="-gneE13"/>
    <trip id="32" type="vehDist3" depart="32.00" departLane="best" departPos="random" departSpeed="random" from="gneE7" to="-gneE9"/>
    <trip id="33" type="vehDist0" depart="33.00" departLane="best" departPos="random" departSpeed="random" from="gneE9" to="-gneE11"/>
    <trip id="34" type="vehDist4" depart="34.00" departLane="best" departPos="random" departSpeed="random" from="gneE9" to="-gneE7"/>
    <trip id="35" type="vehDist0" depart="35.00" departLane="best" departPos="random" departSpeed="random" from="gneE13" to="-gneE9"/>
    <trip id="36" type="vehDist3" depart="36.00" departLane="best" departPos="random" departSpeed="random" from="gneE9" to="-gneE11"/>
    <trip id="37" type="vehDist1" depart="37.00" departLane="best" departPos="random" departSpeed="random" from="gneE9" to="-gneE7"/>
    <trip id="38" type="vehDist0" depart="38.00" departLane="best" departPos="random" departSpeed="random" from="gneE13" to="-gneE7"/>
    <trip id="39" type="vehDist0" depart="39.00" departLane="best" departPos="random" departSpeed="random" from="gneE13" to="-gneE7"/>
    <trip id="40" type="vehDist2" depart="40.00" departLane="best" departPos="random" departSpeed="random" from="gneE7" to="-gneE11"/>
    <trip id="41" type="vehDist4" depart="41.00" departLane="best" departPos="random" departSpeed="random" from="gneE7" to="-gneE11"/>
    <trip id="42" type="vehDist1" depart="42.00" departLane="best" departPos="random" departSpeed="random" from="gneE13" to="-gneE7"/>
    <trip id="43" type="vehDist1" depart="43.00" departLane="best" departPos="random" departSpeed="random" from="gneE11" to="-gneE7"/>
    <trip id="44" type="vehDist0" depart="44.00" departLane="best" departPos="random" departSpeed="random" from="gneE11" to="-gneE13"/>
    <trip id="45" type="vehDist2" depart="45.00" departLane="best" departPos="random" departSpeed="random" from="gneE11" to="-gneE13"/>
    <trip id="46" type="vehDist1" depart="46.00" departLane="best" departPos="random" departSpeed="random" from="gneE13" to="-gneE7"/>
    <trip id="50" type="vehDist3" depart="50.00" departLane="best" departPos="random" departSpeed="random" from="gneE9" to="-gneE11"/>
    <trip id="51" type="vehDist2" depart="51.00" departLane="best" departPos="random" departSpeed="random" from="gneE11" to="-gneE13"/>
    <trip id="54" type="vehDist4" depart="54.00" departLane="best" departPos="random" departSpeed="random" from="gneE7" to="-gneE13"/>
    <trip id="55" type="vehDist1" depart="55.00" departLane="best" departPos="random" departSpeed="random" from="gneE13" to="-gneE11"/>
    <trip id="57" type="vehDist2" depart="57.00" departLane="best" departPos="random" departSpeed="random" from="gneE7" to="-gneE13"/>
    <trip id="58" type="vehDist0" depart="58.00" departLane="best" departPos="random" departSpeed="random" from="gneE13" to="-gneE9"/>
    <trip id="59" type="vehDist4" depart="59.00" departLane="best" departPos="random" departSpeed="random" from="gneE11" to="-gneE7"/>
    <trip id="62" type="vehDist0" depart="62.00" departLane="best" departPos="random" departSpeed="random" from="gneE7" to="-gneE11"/>
    <trip id="66" type="vehDist4" depart="66.00" departLane="best" departPos="random" departSpeed="random" from="gneE7" to="-gneE9"/>
    <trip id="70" type="vehDist1" depart="70.00" departLane="best" departPos="random" departSpeed="random" from="gneE9" to="-gneE7"/>
    <trip id="72" type="vehDist0" depart="72.00" departLane="best" departPos="random" departSpeed="random" from="gneE13" to="-gneE7"/>
    <trip id="73" type="vehDist2" depart="73.00" departLane="best" departPos="random" departSpeed="random" from="gneE7" to="-gneE13"/>
    <trip id="74" type="vehDist1" depart="74.00" departLane="best" departPos="random" departSpeed="random" from="gneE11" to="-gneE7"/>
    <trip id="75" type="vehDist0" depart="75.00" departLane="best" departPos="random" departSpeed="random" from="gneE7" to="-gneE13"/>
    <trip id="76" type="vehDist0" depart="76.00" departLane="best" departPos="random" departSpeed="random" from="gneE7" to="-gneE9"/>
    <trip id="78" type="vehDist3" depart="78.00" departLane="best" departPos="random" departSpeed="random" from="gneE9" to="-gneE7"/>
    <trip id="79" type="vehDist1" depart="79.00" departLane="best" departPos="random" departSpeed="random" from="gneE11" to="-gneE13"/>
    <trip id="80" type="vehDist1" depart="80.00" departLane="best" departPos="random" departSpeed="random" from="gneE7" to="-gneE9"/>
    <trip id="81" type="vehDist1" depart="81.00" departLane="best" departPos="random" departSpeed="random" from="gneE7" to="-gneE11"/>
    <trip id="83" type="vehDist2" depart="83.00" departLane="best" departPos="random" departSpeed="random" from="gneE11" to="-gneE13"/>
    <trip id="85" type="vehDist1" depart="85.00" departLane="best" departPos="random" departSpeed="random" from="gneE11" to="-gneE7"/>
    <trip id="86" type="vehDist2" depart="86.00" departLane="best" departPos="random" departSpeed="random" from="gneE7" to="-gneE13"/>
    <trip id="87" type="vehDist4" depart="87.00" departLane="best" departPos="random" departSpeed="random" from="gneE9" to="-gneE11"/>
    <trip id="88" type="vehDist2" depart="88.00" departLane="best" departPos="random" departSpeed="random" from="gneE11" to="-gneE9"/>
    <trip id="91" type="vehDist4" depart="91.00" departLane="best" departPos="random" departSpeed="random" from="gneE11" to="-gneE7"/>
    <trip id="92" type="vehDist0" depart="92.00" departLane="best" departPos="random" departSpeed="random" from="gneE7" to="-gneE13"/>
    <trip id="93" type="vehDist1" depart="93.00" departLane="best" departPos="random" departSpeed="random" from="gneE9" to="-gneE7"/>
    <trip id="94" type="vehDist0" depart="94.00" departLane="best" departPos="random" departSpeed="random" from="gneE9" to="-gneE7"/>
    <trip id="95" type="vehDist4" depart="95.00" departLane="best" departPos="random" departSpeed="random" from="gneE13" to="-gneE9"/>
    <trip id="96" type="vehDist3" depart="96.00" departLane="best" departPos="random" departSpeed="random" from="gneE11" to="-gneE7"/>
    <trip id="98" type="vehDist2" depart="98.00" departLane="best" departPos="random" departSpeed="random" from="gneE9" to="-gneE11"/>
    <trip id="99" type="vehDist2" depart="99.00" departLane="best" departPos="random" departSpeed="random" from="gneE13" to="-gneE11"/>
    <trip id="102" type="vehDist4" depart="102.00" departLane="best" departPos="random" departSpeed="random" from="gneE13" to="-gneE9"/>
    <trip id="103" type="vehDist2" depart="103.00" departLane="best" departPos="random" departSpeed="random" from="gneE7" to="-gneE13"/>
    <trip id="104" type="vehDist4" depart="104.00" departLane="best" departPos="random" departSpeed="random" from="gneE13" to="-gneE11"/>
    <trip id="105" type="vehDist1" depart="105.00" departLane="best" departPos="random" departSpeed="random" from="gneE13" to="-gneE7"/>
    <trip id="106" type="vehDist2" depart="106.00" departLane="best" departPos="random" departSpeed="random" from="gneE11" to="-gneE7"/>
    <trip id="107" type="vehDist1" depart="107.00" departLane="best" departPos="random" departSpeed="random" from="gneE7" to="-gneE13"/>
    <trip id="108" type="vehDist3" depart="108.00" departLane="best" departPos="random" departSpeed="random" from="gneE7" to="-gneE11"/>
    <trip id="109" type="vehDist0" depart="109.00" departLane="best" departPos="random" departSpeed="random" from="gneE11" to="-gneE13"/>
    <trip id="110" type="vehDist2" depart="110.00" departLane="best" departPos="random" departSpeed="random" from="gneE13" to="-gneE9"/>
    <trip id="111" type="vehDist3" depart="111.00" departLane="best" departPos="random" departSpeed="random" from="gneE9" to="-gneE13"/>
    <trip id="112" type="vehDist3" depart="112.00" departLane="best" departPos="random" departSpeed="random" from="gneE13" to="-gneE11"/>
    <trip id="113" type="vehDist1" depart="113.00" departLane="best" departPos="random" departSpeed="random" from="gneE11" to="-gneE9"/>
    <trip id="114" type="vehDist3" depart="114.00" departLane="best" departPos="random" departSpeed="random" from="gneE11" to="-gneE13"/>
    <trip id="116" type="vehDist3" depart="116.00" departLane="best" departPos="random" departSpeed="random" from="gneE7" to="-gneE11"/>
    <trip id="117" type="vehDist0" depart="117.00" departLane="best" departPos="random" departSpeed="random" from="gneE13" to="-gneE9"/>
    <trip id="119" type="vehDist1" depart="119.00" departLane="best" departPos="random" departSpeed="random" from="gneE11" to="-gneE9"/>
    <trip id="120" type="vehDist2" depart="120.00" departLane="best" departPos="random" departSpeed="random" from="gneE7" to="-gneE13"/>
    <trip id="121" type="vehDist0" depart="121.00" departLane="best" departPos="random" departSpeed="random" from="gneE11" to="-gneE9"/>
    <trip id="126" type="vehDist0" depart="126.00" departLane="best" departPos="random" departSpeed="random" from="gneE7" to="-gneE11"/>
    <trip id="127" type="vehDist4" depart="127.00" departLane="best" departPos="random" departSpeed="random" from="gneE9" to="-gneE7"/>
    <trip id="128" type="vehDist1" depart="128.00" departLane="best" departPos="random" departSpeed="random" from="gneE7" to="-gneE11"/>
    <trip id="129" type="vehDist3" depart="129.00" departLane="best" departPos="random" departSpeed="random" from="gneE11" to="-gneE7"/>
    <trip id="130" type="vehDist2" depart="130.00" departLane="best" departPos="random" departSpeed="random" from="gneE7" to="-gneE9"/>
    <trip id="131" type="vehDist2" depart="131.00" departLane="best" departPos="random" departSpeed="random" from="gneE13" to="-gneE11"/>
    <trip id="132" type="vehDist1" depart="132.00" departLane="best" departPos="random" departSpeed="random" from="gneE9" to="-gneE13"/>
    <trip id="134" type="vehDist3" depart="134.00" departLane="best" departPos="random" departSpeed="random" from="gneE11" to="-gneE13"/>
    <trip id="135" type="vehDist2" depart="135.00" departLane="best" departPos="random" departSpeed="random" from="gneE9" to="-gneE13"/>
    <trip id="136" type="vehDist2" depart="136.00" departLane="best" departPos="random" departSpeed="random" from="gneE7" to="-gneE9"/>
    <trip id="137" type="vehDist0" depart="137.00" departLane="best" departPos="random" departSpeed="random" from="gneE11" to="-gneE13"/>
    <trip id="138" type="vehDist4" depart="138.00" departLane="best" departPos="random" departSpeed="random" from="gneE7" to="-gneE13"/>
    <trip id="139" type="vehDist3" depart="139.00" departLane="best" departPos="random" departSpeed="random" from="gneE9" to="-gneE7"/>
    <trip id="140" type="vehDist4" depart="140.00" departLane="best" departPos="random" departSpeed="random" from="gneE9" to="-gneE11"/>
    <trip id="141" type="vehDist4" depart="141.00" departLane="best" departPos="random" departSpeed="random" from="gneE13" to="-gneE11"/>
    <trip id="143" type="vehDist0" depart="143.00" departLane="best" departPos="random" departSpeed="random" from="gneE7" to="-gneE11"/>
    <trip id="144" type="vehDist4" depart="144.00" departLane="best" departPos="random" departSpeed="random" from="gneE9" to="-gneE13"/>
    <trip id="145" type="vehDist4" depart="145.00" departLane="best" departPos="random" departSpeed="random" from="gneE13" to="-gneE11"/>
    <trip id="147" type="vehDist4" depart="147.00" departLane="best" departPos="random" departSpeed="random" from="gneE7" to="-gneE13"/>
    <trip id="148" type="vehDist0" depart="148.00" departLane="best" departPos="random" departSpeed="random" from="gneE13" to="-gneE7"/>
    <trip id="149" type="vehDist1" depart="149.00" departLane="best" departPos="random" departSpeed="random" from="gneE7" to="-gneE11"/>
    <trip id="152" type="vehDist1" depart="152.00" departLane="best" departPos="random" departSpeed="random" from="gneE11" to="-gneE7"/>
    <trip id="153" type="vehDist0" depart="153.00" departLane="best" departPos="random" departSpeed="random" from="gneE7" to="-gneE11"/>
    <trip id="154" type="vehDist3" depart="154.00" departLane="best" departPos="random" departSpeed="random" from="gneE9" to="-gneE7"/>
    <trip id="155" type="vehDist4" depart="155.00" departLane="best" departPos="random" departSpeed="random" from="gneE7" to="-gneE11"/>
    <trip id="156" type="vehDist0" depart="156.00" departLane="best" departPos="random" departSpeed="random" from="gneE9" to="-gneE13"/>
    <trip id="157" type="vehDist2" depart="157.00" departLane="best" departPos="random" departSpeed="random" from="gneE11" to="-gneE9"/>
    <trip id="158" type="vehDist4" depart="158.00" departLane="best" departPos="random" departSpeed="random" from="gneE11" to="-gneE7"/>
    <trip id="159" type="vehDist2" depart="159.00" departLane="best" departPos="random" departSpeed="random" from="gneE9" to="-gneE11"/>
    <trip id="160" type="vehDist0" depart="160.00" departLane="best" departPos="random" departSpeed="random" from="gneE13" to="-gneE11"/>
    <trip id="161" type="vehDist4" depart="161.00" departLane="best" departPos="random" departSpeed="random" from="gneE7" to="-gneE9"/>
    <trip id="164" type="vehDist4" depart="164.00" departLane="best" departPos="random" departSpeed="random" from="gneE11" to="-gneE7"/>
    <trip id="165" type="vehDist2" depart="165.00" departLane="best" departPos="random" departSpeed="random" from="gneE9" to="-gneE7"/>
    <trip id="166" type="vehDist4" depart="166.00" departLane="best" departPos="random" departSpeed="random" from="gneE13" to="-gneE11"/>
    <trip id="167" type="vehDist3" depart="167.00" departLane="best" departPos="random" departSpeed="random" from="gneE13" to="-gneE11"/>
    <trip id="168" type="vehDist2" depart="168.00" departLane="best" departPos="random" departSpeed="random" from="gneE9" to="-gneE7"/>
    <trip id="169" type="vehDist4" depart="169.00" departLane="best" departPos="random" departSpeed="random" from="gneE7" to="-gneE13"/>
    <trip id="170" type="vehDist1" depart="170.00" departLane="best" departPos="random" departSpeed="random" from="gneE11" to="-gneE9"/>
    <trip id="171" type="vehDist1" depart="171.00" departLane="best" departPos="random" departSpeed="random" from="gneE13" to="-gneE7"/>
    <trip id="172" type="vehDist0" depart="172.00" departLane="best" departPos="random" departSpeed="random" from="gneE11" to="-gneE7"/>
    <trip id="174" type="vehDist1" depart="174.00" departLane="best" departPos="random" departSpeed="random" from="gneE7" to="-gneE13"/>
    <trip id="175" type="vehDist3" depart="175.00" departLane="best" departPos="random" departSpeed="random" from="gneE11" to="-gneE9"/>
    <trip id="177" type="vehDist1" depart="177.00" departLane="best" departPos="random" departSpeed="random" from="gneE13" to="-gneE9"/>
    <trip id="179" type="vehDist0" depart="179.00" departLane="best" departPos="random" departSpeed="random" from="gneE13" to="-gneE7"/>
    <trip id="180" type="vehDist2" depart="180.00" departLane="best" departPos="random" departSpeed="random" from="gneE11" to="-gneE9"/>
    <trip id="181" type="vehDist0" depart="181.00" departLane="best" departPos="random" departSpeed="random" from="gneE9" to="-gneE11"/>
    <trip id="183" type="vehDist0" depart="183.00" departLane="best" departPos="random" departSpeed="random" from="gneE9" to="-gneE11"/>
    <trip id="184" type="vehDist0" depart="184.00" departLane="best" departPos="random" departSpeed="random" from="gneE9" to="-gneE7"/>
    <trip id="185" type="vehDist1" depart="185.00" departLane="best" departPos="random" departSpeed="random" from="gneE13" to="-gneE7"/>
    <trip id="187" type="vehDist0" depart="187.00" departLane="best" departPos="random" departSpeed="random" from="gneE9" to="-gneE13"/>
    <trip id="188" type="vehDist4" depart="188.00" departLane="best" departPos="random" departSpeed="random" from="gneE9" to="-gneE11"/>
    <trip id="189" type="vehDist1" depart="189.00" departLane="best" departPos="random" departSpeed="random" from="gneE13" to="-gneE9"/>
    <trip id="192" type="vehDist2" depart="192.00" departLane="best" departPos="random" departSpeed="random" from="gneE9" to="-gneE11"/>
    <trip id="194" type="vehDist1" depart="194.00" departLane="best" departPos="random" departSpeed="random" from="gneE7" to="-gneE13"/>
    <trip id="195" type="vehDist4" depart="195.00" departLane="best" departPos="random" departSpeed="random" from="gneE11" to="-gneE13"/>
    <trip id="196" type="vehDist1" depart="196.00" departLane="best" departPos="random" departSpeed="random" from="gneE13" to="-gneE9"/>
    <trip id="198" type="vehDist2" depart="198.00" departLane="best" departPos="random" departSpeed="random" from="gneE11" to="-gneE7"/>
    <trip id="200" type="vehDist2" depart="200.00" departLane="best" departPos="random" departSpeed="random" from="gneE13" to="-gneE11"/>
    <trip id="201" type="vehDist0" depart="201.00" departLane="best" departPos="random" departSpeed="random" from="gneE13" to="-gneE7"/>
    <trip id="202" type="vehDist2" depart="202.00" departLane="best" departPos="random" departSpeed="random" from="gneE13" to="-gneE9"/>
    <trip id="204" type="vehDist3" depart="204.00" departLane="best" departPos="random" departSpeed="random" from="gneE13" to="-gneE9"/>
    <trip id="205" type="vehDist3" depart="205.00" departLane="best" departPos="random" departSpeed="random" from="gneE7" to="-gneE13"/>
    <trip id="208" type="vehDist2" depart="208.00" departLane="best" departPos="random" departSpeed="random" from="gneE9" to="-gneE7"/>
    <trip id="209" type="vehDist0" depart="209.00" departLane="best" departPos="random" departSpeed="random" from="gneE7" to="-gneE13"/>
    <trip id="210" type="vehDist2" depart="210.00" departLane="best" departPos="random" departSpeed="random" from="gneE13" to="-gneE11"/>
    <trip id="211" type="vehDist0" depart="211.00" departLane="best" departPos="random" departSpeed="random" from="gneE11" to="-gneE9"/>
    <trip id="212" type="vehDist2" depart="212.00" departLane="best" departPos="random" departSpeed="random" from="gneE11" to="-gneE7"/>
    <trip id="213" type="vehDist3" depart="213.00" departLane="best" departPos="random" departSpeed="random" from="gneE13" to="-gneE11"/>
    <trip id="214" type="vehDist3" depart="214.00" departLane="best" departPos="random" departSpeed="random" from="gneE9" to="-gneE11"/>
    <trip id="215" type="vehDist3" depart="215.00" departLane="best" departPos="random" departSpeed="random" from="gneE9" to="-gneE13"/>
    <trip id="216" type="vehDist0" depart="216.00" departLane="best" departPos="random" departSpeed="random" from="gneE11" to="-gneE13"/>
    <trip id="217" type="vehDist4" depart="217.00" departLane="best" departPos="random" departSpeed="random" from="gneE11" to="-gneE7"/>
    <trip id="219" type="vehDist0" depart="219.00" departLane="best" departPos="random" departSpeed="random" from="gneE13" to="-gneE11"/>
    <trip id="220" type="vehDist2" depart="220.00" departLane="best" departPos="random" departSpeed="random" from="gneE11" to="-gneE13"/>
    <trip id="221" type="vehDist0" depart="221.00" departLane="best" departPos="random" departSpeed="random" from="gneE9" to="-gneE7"/>
    <trip id="222" type="vehDist2" depart="222.00" departLane="best" departPos="random" departSpeed="random" from="gneE9" to="-gneE11"/>
    <trip id="224" type="vehDist2" depart="224.00" departLane="best" departPos="random" departSpeed="random" from="gneE11" to="-gneE7"/>
    <trip id="225" type="vehDist4" depart="225.00" departLane="best" departPos="random" departSpeed="random" from="gneE13" to="-gneE9"/>
    <trip id="226" type="vehDist4" depart="226.00" departLane="best" departPos="random" departSpeed="random" from="gneE9" to="-gneE7"/>
    <trip id="229" type="vehDist1" depart="229.00" departLane="best" departPos="random" departSpeed="random" from="gneE7" to="-gneE11"/>
    <trip id="230" type="vehDist0" depart="230.00" departLane="best" departPos="random" departSpeed="random" from="gneE7" to="-gneE11"/>
    <trip id="231" type="vehDist1" depart="231.00" departLane="best" departPos="random" departSpeed="random" from="gneE11" to="-gneE13"/>
    <trip id="233" type="vehDist2" depart="233.00" departLane="best" departPos="random" departSpeed="random" from="gneE11" to="-gneE7"/>
    <trip id="234" type="vehDist1" depart="234.00" departLane="best" departPos="random" departSpeed="random" from="gneE7" to="-gneE13"/>
    <trip id="235" type="vehDist3" depart="235.00" departLane="best" departPos="random" departSpeed="random" from="gneE13" to="-gneE9"/>
    <trip id="236" type="vehDist4" depart="236.00" departLane="best" departPos="random" departSpeed="random" from="gneE11" to="-gneE7"/>
    <trip id="237" type="vehDist1" depart="237.00" departLane="best" departPos="random" departSpeed="random" from="gneE7" to="-gneE9"/>
    <trip id="239" type="vehDist1" depart="239.00" departLane="best" departPos="random" departSpeed="random" from="gneE7" to="-gneE13"/>
    <trip id="241" type="vehDist1" depart="241.00" departLane="best" departPos="random" departSpeed="random" from="gneE7" to="-gneE9"/>
    <trip id="242" type="vehDist2" depart="242.00" departLane="best" departPos="random" departSpeed="random" from="gneE13" to="-gneE11"/>
    <trip id="245" type="vehDist0" depart="245.00" departLane="best" departPos="random" departSpeed="random" from="gneE9" to="-gneE13"/>
    <trip id="247" type="vehDist1" depart="247.00" departLane="best" departPos="random" departSpeed="random" from="gneE9" to="-gneE13"/>
    <trip id="250" type="vehDist0" depart="250.00" departLane="best" departPos="random" departSpeed="random" from="gneE7" to="-gneE9"/>
    <trip id="251" type="vehDist3" depart="251.00" departLane="best" departPos="random" departSpeed="random" from="gneE7" to="-gneE9"/>
    <trip id="252" type="vehDist2" depart="252.00" departLane="best" departPos="random" departSpeed="random" from="gneE13" to="-gneE9"/>
    <trip id="253" type="vehDist2" depart="253.00" departLane="best" departPos="random" departSpeed="random" from="gneE11" to="-gneE7"/>
    <trip id="254" type="vehDist2" depart="254.00" departLane="best" departPos="random" departSpeed="random" from="gneE13" to="-gneE7"/>
    <trip id="255" type="vehDist2" depart="255.00" departLane="best" departPos="random" departSpeed="random" from="gneE11" to="-gneE9"/>
    <trip id="257" type="vehDist3" depart="257.00" departLane="best" departPos="random" departSpeed="random" from="gneE11" to="-gneE13"/>
    <trip id="258" type="vehDist2" depart="258.00" departLane="best" departPos="random" departSpeed="random" from="gneE11" to="-gneE7"/>
    <trip id="260" type="vehDist1" depart="260.00" departLane="best" departPos="random" departSpeed="random" from="gneE13" to="-gneE7"/>
    <trip id="261" type="vehDist4" depart="261.00" departLane="best" departPos="random" departSpeed="random" from="gneE9" to="-gneE7"/>
    <trip id="262" type="vehDist1" depart="262.00" departLane="best" departPos="random" departSpeed="random" from="gneE9" to="-gneE13"/>
    <trip id="263" type="vehDist0" depart="263.00" departLane="best" departPos="random" departSpeed="random" from="gneE13" to="-gneE7"/>
    <trip id="264" type="vehDist1" depart="264.00" departLane="best" departPos="random" departSpeed="random" from="gneE11" to="-gneE13"/>
    <trip id="265" type="vehDist1" depart="265.00" departLane="best" departPos="random" departSpeed="random" from="gneE7" to="-gneE11"/>
    <trip id="266" type="vehDist3" depart="266.00" departLane="best" departPos="random" departSpeed="random" from="gneE13" to="-gneE7"/>
    <trip id="267" type="vehDist1" depart="267.00" departLane="best" departPos="random" departSpeed="random" from="gneE7" to="-gneE11"/>
    <trip id="268" type="vehDist4" depart="268.00" departLane="best" departPos="random" departSpeed="random" from="gneE7" to="-gneE11"/>
    <trip id="270" type="vehDist3" depart="270.00" departLane="best" departPos="random" departSpeed="random" from="gneE7" to="-gneE13"/>
    <trip id="271" type="vehDist0" depart="271.00" departLane="best" departPos="random" departSpeed="random" from="gneE9" to="-gneE13"/>
    <trip id="273" type="vehDist3" depart="273.00" departLane="best" departPos="random" departSpeed="random" from="gneE7" to="-gneE11"/>
    <trip id="274" type="vehDist0" depart="274.00" departLane="best" departPos="random" departSpeed="random" from="gneE13" to="-gneE7"/>
    <trip id="275" type="vehDist1" depart="275.00" departLane="best" departPos="random" departSpeed="random" from="gneE11" to="-gneE7"/>
    <trip id="277" type="vehDist3" depart="277.00" departLane="best" departPos="random" departSpeed="random" from="gneE9" to="-gneE13"/>
    <trip id="278" type="vehDist3" depart="278.00" departLane="best" departPos="random" departSpeed="random" from="gneE11" to="-gneE13"/>
    <trip id="279" type="vehDist3" depart="279.00" departLane="best" departPos="random" departSpeed="random" from="gneE13" to="-gneE11"/>
    <trip id="281" type="vehDist2" depart="281.00" departLane="best" departPos="random" departSpeed="random" from="gneE11" to="-gneE9"/>
    <trip id="283" type="vehDist1" depart="283.00" departLane="best" departPos="random" departSpeed="random" from="gneE13" to="-gneE7"/>