<?xml version="1.0" encoding="UTF-8"?>

<!-- generated on 04/04/21 21:31:23 by Eclipse SUMO duarouter Version 1.8.0
<configuration xmlns:xsi="http://www.w3.org/2001/XMLSchema-instance" xsi:noNamespaceSchemaLocation="http://sumo.dlr.de/xsd/duarouterConfiguration.xsd">

    <input>
        <net-file value="./4-way/4-way.net.xml"/>
        <additional-files value="vTypeDistributions.add.xml"/>
        <route-files value="trips.trips.xml"/>
    </input>

    <output>
        <output-file value="./4-way/route/Period_3.rou.xml"/>
        <alternatives-output value="./4-way/route/Period_3.rou.alt.xml"/>
    </output>

    <time>
        <begin value="0"/>
        <end value="10800.0"/>
    </time>

    <report>
        <no-warnings value="true"/>
        <ignore-errors value="true"/>
        <no-step-log value="true"/>
    </report>

</configuration>
-->

<routes xmlns:xsi="http://www.w3.org/2001/XMLSchema-instance" xsi:noNamespaceSchemaLocation="http://sumo.dlr.de/xsd/routes_file.xsd">
    <vType id="vehDist4" length="4.70" minGap="1.30" maxSpeed="15.27" vClass="passenger" accel="1.737" sigma="0.574"/>
    <vehicle id="0" type="vehDist4" depart="0.00" departLane="random" departPos="random" departSpeed="random">
        <route edges="gneE13 gneE14 -gneE8 -gneE7"/>
    </vehicle>
    <vType id="vehDist3" length="4.70" minGap="1.30" maxSpeed="33.08" vClass="passenger" accel="2.593" sigma="0.407"/>
    <vehicle id="1" type="vehDist3" depart="1.20" departLane="random" departPos="random" departSpeed="random">
        <route edges="gneE11 gneE12 -gneE14 -gneE13"/>
    </vehicle>
    <vType id="vehDist0" length="4.70" minGap="1.30" maxSpeed="31.50" vClass="passenger" accel="1.801" sigma="0.549"/>
    <vehicle id="5" type="vehDist0" depart="6.00" departLane="random" departPos="random" departSpeed="random">
        <route edges="gneE11 gneE12 -gneE14 -gneE13"/>
    </vehicle>
    <vType id="vehDist1" length="4.70" minGap="1.30" maxSpeed="26.40" vClass="passenger" accel="1.610" sigma="0.472"/>
    <vehicle id="7" type="vehDist1" depart="8.40" departLane="random" departPos="random" departSpeed="random">
        <route edges="gneE13 gneE14 -gneE10 -gneE9"/>
    </vehicle>
    <vehicle id="9" type="vehDist3" depart="10.80" departLane="random" departPos="random" departSpeed="random">
        <route edges="gneE9 gneE10 -gneE12 -gneE11"/>
    </vehicle>
    <vehicle id="10" type="vehDist0" depart="12.00" departLane="random" departPos="random" departSpeed="random">
        <route edges="gneE7 gneE8 -gneE12 -gneE11"/>
    </vehicle>
    <vehicle id="11" type="vehDist3" depart="13.20" departLane="random" departPos="random" departSpeed="random">
        <route edges="gneE7 gneE8 -gneE10 -gneE9"/>
    </vehicle>
    <vType id="vehDist2" length="4.70" minGap="1.30" maxSpeed="19.82" vClass="passenger" accel="2.695" sigma="0.266"/>
    <vehicle id="12" type="vehDist2" depart="14.40" departLane="random" departPos="random" departSpeed="random">
        <route edges="gneE7 gneE8 -gneE10 -gneE9"/>
    </vehicle>
    <vehicle id="15" type="vehDist1" depart="18.00" departLane="random" departPos="random" departSpeed="random">
        <route edges="gneE7 gneE8 -gneE14 -gneE13"/>
    </vehicle>
    <vehicle id="16" type="vehDist0" depart="19.20" departLane="random" departPos="random" departSpeed="random">
        <route edges="gneE13 gneE14 -gneE12 -gneE11"/>
    </vehicle>
    <vehicle id="17" type="vehDist4" depart="20.40" departLane="random" departPos="random" departSpeed="random">
        <route edges="gneE9 gneE10 -gneE12 -gneE11"/>
    </vehicle>
    <vehicle id="19" type="vehDist3" depart="22.80" departLane="random" departPos="random" departSpeed="random">
        <route edges="gneE9 gneE10 -gneE8 -gneE7"/>
    </vehicle>
    <vehicle id="21" type="vehDist2" depart="25.20" departLane="random" departPos="random" departSpeed="random">
        <route edges="gneE7 gneE8 -gneE12 -gneE11"/>
    </vehicle>
    <vehicle id="22" type="vehDist1" depart="26.40" departLane="random" departPos="random" departSpeed="random">
        <route edges="gneE7 gneE8 -gneE14 -gneE13"/>
    </vehicle>
    <vehicle id="23" type="vehDist3" depart="27.60" departLane="random" departPos="random" departSpeed="random">
        <route edges="gneE9 gneE10 -gneE14 -gneE13"/>
    </vehicle>
    <vehicle id="24" type="vehDist4" depart="28.80" departLane="random" departPos="random" departSpeed="random">
        <route edges="gneE9 gneE10 -gneE14 -gneE13"/>
    </vehicle>
    <vehicle id="25" type="vehDist4" depart="30.00" departLane="random" departPos="random" departSpeed="random">
        <route edges="gneE13 gneE14 -gneE8 -gneE7"/>
    </vehicle>
    <vehicle id="27" type="vehDist1" depart="32.40" departLane="random" departPos="random" departSpeed="random">
        <route edges="gneE9 gneE10 -gneE12 -gneE11"/>
    </vehicle>
    <vehicle id="28" type="vehDist2" depart="33.60" departLane="random" departPos="random" departSpeed="random">
        <route edges="gneE13 gneE14 -gneE8 -gneE7"/>
    </vehicle>
    <vehicle id="29" type="vehDist1" depart="34.80" departLane="random" departPos="random" departSpeed="random">
        <route edges="gneE11 gneE12 -gneE14 -gneE13"/>
    </vehicle>
    <vehicle id="30" type="vehDist0" depart="36.00" departLane="random" departPos="random" departSpeed="random">
        <route edges="gneE7 gneE8 -gneE12 -gneE11"/>
    </vehicle>
    <vehicle id="32" type="vehDist3" depart="38.40" departLane="random" departPos="random" departSpeed="random">
        <route edges="gneE13 gneE14 -gneE8 -gneE7"/>
    </vehicle>
    <vehicle id="33" type="vehDist0" depart="39.60" departLane="random" departPos="random" departSpeed="random">
        <route edges="gneE11 gneE12 -gneE8 -gneE7"/>
    </vehicle>
    <vehicle id="35" type="vehDist0" depart="42.00" departLane="random" departPos="random" departSpeed="random">
        <route edges="gneE13 gneE14 -gneE10 -gneE9"/>
    </vehicle>
    <vehicle id="39" type="vehDist0" depart="46.80" departLane="random" departPos="random" departSpeed="random">
        <route edges="gneE7 gneE8 -gneE12 -gneE11"/>
    </vehicle>
    <vehicle id="40" type="vehDist2" depart="48.00" departLane="random" departPos="random" departSpeed="random">
        <route edges="gneE9 gneE10 -gneE12 -gneE11"/>
    </vehicle>
    <vehicle id="41" type="vehDist4" depart="49.20" departLane="random" departPos="random" departSpeed="random">
        <route edges="gneE7 gneE8 -gneE12 -gneE11"/>
    </vehicle>
    <vehicle id="43" type="vehDist1" depart="51.60" departLane="random" departPos="random" departSpeed="random">
        <route edges="gneE7 gneE8 -gneE10 -gneE9"/>
    </vehicle>
    <vehicle id="44" type="vehDist0" depart="52.80" departLane="random" departPos="random" departSpeed="random">
        <route edges="gneE7 gneE8 -gneE14 -gneE13"/>
    </vehicle>
    <vehicle id="45" type="vehDist2" depart="54.00" departLane="random" departPos="random" departSpeed="random">
        <route edges="gneE7 gneE8 -gneE12 -gneE11"/>
    </vehicle>
    <vehicle id="46" type="vehDist1" depart="55.20" departLane="random" departPos="random" departSpeed="random">
        <route edges="gneE9 gneE10 -gneE12 -gneE11"/>
    </vehicle>
    <vehicle id="47" type="vehDist4" depart="56.40" departLane="random" departPos="random" departSpeed="random">
        <route edges="gneE13 gneE14 -gneE10 -gneE9"/>
    </vehicle>
    <vehicle id="48" type="vehDist0" depart="57.60" departLane="random" departPos="random" departSpeed="random">
        <route edges="gneE7 gneE8 -gneE10 -gneE9"/>
    </vehicle>
    <vehicle id="49" type="vehDist3" depart="58.80" departLane="random" departPos="random" departSpeed="random">
        <route edges="gneE7 gneE8 -gneE12 -gneE11"/>
    </vehicle>
    <vehicle id="50" type="vehDist3" depart="60.00" departLane="random" departPos="random" departSpeed="random">
        <route edges="gneE13 gneE14 -gneE10 -gneE9"/>
    </vehicle>
    <vehicle id="51" type="vehDist2" depart="61.20" departLane="random" departPos="random" departSpeed="random">
        <route edges="gneE7 gneE8 -gneE12 -gneE11"/>
    </vehicle>
    <vehicle id="52" type="vehDist3" depart="62.40" departLane="random" departPos="random" departSpeed="random">
        <route edges="gneE9 gneE10 -gneE12 -gneE11"/>
    </vehicle>
    <vehicle id="53" type="vehDist4" depart="63.60" departLane="random" departPos="random" departSpeed="random">
        <route edges="gneE7 gneE8 -gneE12 -gneE11"/>
    </vehicle>
    <vehicle id="54" type="vehDist4" depart="64.80" departLane="random" departPos="random" departSpeed="random">
        <route edges="gneE11 gneE12 -gneE10 -gneE9"/>
    </vehicle>
    <vehicle id="55" type="vehDist1" depart="66.00" departLane="random" departPos="random" departSpeed="random">
        <route edges="gneE13 gneE14 -gneE12 -gneE11"/>
    </vehicle>
    <vehicle id="56" type="vehDist2" depart="67.20" departLane="random" departPos="random" departSpeed="random">
        <route edges="gneE11 gneE12 -gneE14 -gneE13"/>
    </vehicle>
    <vehicle id="57" type="vehDist2" depart="68.40" departLane="random" departPos="random" departSpeed="random">
        <route edges="gneE13 gneE14 -gneE12 -gneE11"/>
    </vehicle>
    <vehicle id="58" type="vehDist0" depart="69.60" departLane="random" departPos="random" departSpeed="random">
        <route edges="gneE11 gneE12 -gneE10 -gneE9"/>
    </vehicle>
    <vehicle id="59" type="vehDist4" depart="70.80" departLane="random" departPos="random" departSpeed="random">
        <route edges="gneE11 gneE12 -gneE14 -gneE13"/>
    </vehicle>
    <vehicle id="60" type="vehDist0" depart="72.00" departLane="random" departPos="random" departSpeed="random">
        <route edges="gneE7 gneE8 -gneE12 -gneE11"/>
    </vehicle>
    <vehicle id="61" type="vehDist3" depart="73.20" departLane="random" departPos="random" departSpeed="random">
        <route edges="gneE13 gneE14 -gneE8 -gneE7"/>
    </vehicle>
    <vehicle id="62" type="vehDist0" depart="74.40" departLane="random" departPos="random" departSpeed="random">
        <route edges="gneE11 gneE12 -gneE10 -gneE9"/>
    </vehicle>
    <vehicle id="63" type="vehDist0" depart="75.60" departLane="random" departPos="random" departSpeed="random">
        <route edges="gneE9 gneE10 -gneE8 -gneE7"/>
    </vehicle>
    <vehicle id="64" type="vehDist1" depart="76.80" departLane="random" departPos="random" departSpeed="random">
        <route edges="gneE9 gneE10 -gneE14 -gneE13"/>
    </vehicle>
    <vehicle id="65" type="vehDist2" depart="78.00" departLane="random" departPos="random" departSpeed="random">
        <route edges="gneE7 gneE8 -gneE12 -gneE11"/>
    </vehicle>
    <vehicle id="67" type="vehDist0" depart="80.40" departLane="random" departPos="random" departSpeed="random">
        <route edges="gneE7 gneE8 -gneE10 -gneE9"/>
    </vehicle>
    <vehicle id="68" type="vehDist0" depart="81.60" departLane="random" departPos="random" departSpeed="random">
        <route edges="gneE11 gneE12 -gneE10 -gneE9"/>
    </vehicle>
    <vehicle id="69" type="vehDist4" depart="82.80" departLane="random" departPos="random" departSpeed="random">
        <route edges="gneE13 gneE14 -gneE8 -gneE7"/>
    </vehicle>
    <vehicle id="70" type="vehDist1" depart="84.00" departLane="random" departPos="random" departSpeed="random">
        <route edges="gneE9 gneE10 -gneE14 -gneE13"/>
    </vehicle>
    <vehicle id="71" type="vehDist1" depart="85.20" departLane="random" departPos="random" departSpeed="random">
        <route edges="gneE11 gneE12 -gneE14 -gneE13"/>
    </vehicle>
    <vehicle id="72" type="vehDist0" depart="86.40" departLane="random" departPos="random" departSpeed="random">
        <route edges="gneE13 gneE14 -gneE8 -gneE7"/>
    </vehicle>
    <vehicle id="73" type="vehDist2" depart="87.60" departLane="random" departPos="random" departSpeed="random">
        <route edges="gneE13 gneE14 -gneE10 -gneE9"/>
    </vehicle>
    <vehicle id="74" type="vehDist1" depart="88.80" departLane="random" departPos="random" departSpeed="random">
        <route edges="gneE13 gneE14 -gneE10 -gneE9"/>
    </vehicle>
    <vehicle id="75" type="vehDist0" depart="90.00" departLane="random" departPos="random" departSpeed="random">
        <route edges="gneE11 gneE12 -gneE14 -gneE13"/>
    </vehicle>
    <vehicle id="77" type="vehDist0" depart="92.40" departLane="random" departPos="random" departSpeed="random">
        <route edges="gneE13 gneE14 -gneE8 -gneE7"/>
    </vehicle>
    <vehicle id="78" type="vehDist3" depart="93.60" departLane="random" departPos="random" departSpeed="random">
        <route edges="gneE9 gneE10 -gneE8 -gneE7"/>
    </vehicle>
    <vehicle id="79" type="vehDist1" depart="94.80" departLane="random" departPos="random" departSpeed="random">
        <route edges="gneE13 gneE14 -gneE12 -gneE11"/>
    </vehicle>
    <vehicle id="80" type="vehDist1" depart="96.00" departLane="random" departPos="random" departSpeed="random">
        <route edges="gneE9 gneE10 -gneE12 -gneE11"/>
    </vehicle>
    <vehicle id="82" type="vehDist3" depart="98.40" departLane="random" departPos="random" departSpeed="random">
        <route edges="gneE9 gneE10 -gneE14 -gneE13"/>
    </vehicle>
    <vehicle id="84" type="vehDist3" depart="100.80" departLane="random" departPos="random" departSpeed="random">
        <route edges="gneE7 gneE8 -gneE12 -gneE11"/>
    </vehicle>
    <vehicle id="85" type="vehDist1" depart="102.00" departLane="random" departPos="random" departSpeed="random">
        <route edges="gneE13 gneE14 -gneE8 -gneE7"/>
    </vehicle>
    <vehicle id="87" type="vehDist4" depart="104.40" departLane="random" departPos="random" departSpeed="random">
        <route edges="gneE13 gneE14 -gneE10 -gneE9"/>
    </vehicle>
    <vehicle id="88" type="vehDist2" depart="105.60" departLane="random" departPos="random" departSpeed="random">
        <route edges="gneE7 gneE8 -gneE10 -gneE9"/>
    </vehicle>
    <vehicle id="89" type="vehDist2" depart="106.80" departLane="random" departPos="random" departSpeed="random">
        <route edges="gneE9 gneE10 -gneE14 -gneE13"/>
    </vehicle>
    <vehicle id="90" type="vehDist1" depart="108.00" departLane="random" departPos="random" departSpeed="random">
        <route edges="gneE13 gneE14 -gneE12 -gneE11"/>
    </vehicle>
    <vehicle id="92" type="vehDist0" depart="110.40" departLane="random" departPos="random" departSpeed="random">
        <route edges="gneE11 gneE12 -gneE10 -gneE9"/>
    </vehicle>
    <vehicle id="93" type="vehDist1" depart="111.60" departLane="random" departPos="random" departSpeed="random">
        <route edges="gneE7 gneE8 -gneE14 -gneE13"/>
    </vehicle>
    <vehicle id="95" type="vehDist4" depart="114.00" departLane="random" departPos="random" departSpeed="random">
        <route edges="gneE11 gneE12 -gneE10 -gneE9"/>
    </vehicle>
    <vehicle id="97" type="vehDist4" depart="116.40" departLane="random" departPos="random" departSpeed="random">
        <route edges="gneE11 gneE12 -gneE8 -gneE7"/>
    </vehicle>
    <vehicle id="98" type="vehDist2" depart="117.60" departLane="random" departPos="random" departSpeed="random">
        <route edges="gneE9 gneE10 -gneE12 -gneE11"/>
    </vehicle>
    <vehicle id="99" type="vehDist2" depart="118.80" departLane="random" departPos="random" departSpeed="random">
        <route edges="gneE9 gneE10 -gneE8 -gneE7"/>
    </vehicle>
    <vehicle id="101" type="vehDist2" depart="121.20" departLane="random" departPos="random" departSpeed="random">
        <route edges="gneE13 gneE14 -gneE12 -gneE11"/>
    </vehicle>
    <vehicle id="102" type="vehDist4" depart="122.40" departLane="random" departPos="random" departSpeed="random">
        <route edges="gneE11 gneE12 -gneE10 -gneE9"/>
    </vehicle>
    <vehicle id="103" type="vehDist2" depart="123.60" departLane="random" departPos="random" departSpeed="random">
        <route edges="gneE7 gneE8 -gneE14 -gneE13"/>
    </vehicle>
    <vehicle id="104" type="vehDist4" depart="124.80" departLane="random" departPos="random" departSpeed="random">
        <route edges="gneE7 gneE8 -gneE10 -gneE9"/>
    </vehicle>
    <vehicle id="105" type="vehDist1" depart="126.00" departLane="random" departPos="random" departSpeed="random">
        <route edges="gneE11 gneE12 -gneE10 -gneE9"/>
    </vehicle>
    <vehicle id="106" type="vehDist2" depart="127.20" departLane="random" departPos="random" departSpeed="random">
        <route edges="gneE11 gneE12 -gneE10 -gneE9"/>
    </vehicle>
    <vehicle id="107" type="vehDist1" depart="128.40" departLane="random" departPos="random" departSpeed="random">
        <route edges="gneE11 gneE12 -gneE8 -gneE7"/>
    </vehicle>
    <vehicle id="108" type="vehDist3" depart="129.60" departLane="random" departPos="random" departSpeed="random">
        <route edges="gneE9 gneE10 -gneE12 -gneE11"/>
    </vehicle>
    <vehicle id="111" type="vehDist3" depart="133.20" departLane="random" departPos="random" departSpeed="random">
        <route edges="gneE7 gneE8 -gneE14 -gneE13"/>
    </vehicle>
    <vehicle id="112" type="vehDist3" depart="134.40" departLane="random" departPos="random" departSpeed="random">
        <route edges="gneE9 gneE10 -gneE14 -gneE13"/>
    </vehicle>
    <vehicle id="113" type="vehDist1" depart="135.60" departLane="random" departPos="random" departSpeed="random">
        <route edges="gneE9 gneE10 -gneE8 -gneE7"/>
    </vehicle>
    <vehicle id="114" type="vehDist3" depart="136.80" departLane="random" departPos="random" departSpeed="random">
        <route edges="gneE7 gneE8 -gneE12 -gneE11"/>
    </vehicle>
    <vehicle id="116" type="vehDist3" depart="139.20" departLane="random" departPos="random" departSpeed="random">
        <route edges="gneE11 gneE12 -gneE8 -gneE7"/>
    </vehicle>
    <vehicle id="117" type="vehDist0" depart="140.40" departLane="random" departPos="random" departSpeed="random">
        <route edges="gneE9 gneE10 -gneE14 -gneE13"/>
    </vehicle>
    <vehicle id="118" type="vehDist4" depart="141.60" departLane="random" departPos="random" departSpeed="random">
        <route edges="gneE11 gneE12 -gneE14 -gneE13"/>
    </vehicle>
    <vehicle id="119" type="vehDist1" depart="142.80" departLane="random" departPos="random" departSpeed="random">
        <route edges="gneE13 gneE14 -gneE10 -gneE9"/>
    </vehicle>
    <vehicle id="121" type="vehDist0" depart="145.20" departLane="random" departPos="random" departSpeed="random">
        <route edges="gneE7 gneE8 -gneE12 -gneE11"/>
    </vehicle>
    <vehicle id="122" type="vehDist1" depart="146.40" departLane="random" departPos="random" departSpeed="random">
        <route edges="gneE9 gneE10 -gneE8 -gneE7"/>
    </vehicle>
    <vehicle id="125" type="vehDist4" depart="150.00" departLane="random" departPos="random" departSpeed="random">
        <route edges="gneE13 gneE14 -gneE12 -gneE11"/>
    </vehicle>
    <vehicle id="126" type="vehDist0" depart="151.20" departLane="random" departPos="random" departSpeed="random">
        <route edges="gneE11 gneE12 -gneE10 -gneE9"/>
    </vehicle>
    <vehicle id="127" type="vehDist4" depart="152.40" departLane="random" departPos="random" departSpeed="random">
        <route edges="gneE13 gneE14 -gneE10 -gneE9"/>
    </vehicle>
    <vehicle id="128" type="vehDist1" depart="153.60" departLane="random" departPos="random" departSpeed="random">
        <route edges="gneE11 gneE12 -gneE10 -gneE9"/>
    </vehicle>
    <vehicle id="129" type="vehDist3" depart="154.80" departLane="random" departPos="random" departSpeed="random">
        <route edges="gneE13 gneE14 -gneE8 -gneE7"/>
    </vehicle>
    <vehicle id="130" type="vehDist2" depart="156.00" departLane="random" departPos="random" departSpeed="random">
        <route edges="gneE9 gneE10 -gneE14 -gneE13"/>
    </vehicle>
    <vehicle id="131" type="vehDist2" depart="157.20" departLane="random" departPos="random" departSpeed="random">
        <route edges="gneE13 gneE14 -gneE8 -gneE7"/>
    </vehicle>
    <vehicle id="134" type="vehDist3" depart="160.80" departLane="random" departPos="random" departSpeed="random">
        <route edges="gneE7 gneE8 -gneE12 -gneE11"/>
    </vehicle>
    <vehicle id="135" type="vehDist2" depart="162.00" departLane="random" departPos="random" departSpeed="random">
        <route edges="gneE11 gneE12 -gneE8 -gneE7"/>
    </vehicle>
    <vehicle id="136" type="vehDist2" depart="163.20" departLane="random" departPos="random" departSpeed="random">
        <route edges="gneE11 gneE12 -gneE8 -gneE7"/>
    </vehicle>
    <vehicle id="137" type="vehDist0" depart="164.40" departLane="random" departPos="random" departSpeed="random">
        <route edges="gneE13 gneE14 -gneE8 -gneE7"/>
    </vehicle>
    <vehicle id="140" type="vehDist4" depart="168.00" departLane="random" departPos="random" departSpeed="random">
        <route edges="gneE11 gneE12 -gneE8 -gneE7"/>
    </vehicle>
    <vehicle id="141" type="vehDist4" depart="169.20" departLane="random" departPos="random" departSpeed="random">
        <route edges="gneE7 gneE8 -gneE12 -gneE11"/>
    </vehicle>
    <vehicle id="142" type="vehDist2" depart="170.40" departLane="random" departPos="random" departSpeed="random">
        <route edges="gneE13 gneE14 -gneE10 -gneE9"/>
    </vehicle>
    <vehicle id="143" type="vehDist0" depart="171.60" departLane="random" departPos="random" departSpeed="random">
        <route edges="gneE13 gneE14 -gneE8 -gneE7"/>
    </vehicle>
    <vehicle id="144" type="vehDist4" depart="172.80" departLane="random" departPos="random" departSpeed="random">
        <route edges="gneE9 gneE10 -gneE12 -gneE11"/>
    </vehicle>
    <vehicle id="145" type="vehDist4" depart="174.00" departLane="random" departPos="random" departSpeed="random">
        <route edges="gneE13 gneE14 -gneE8 -gneE7"/>
    </vehicle>
    <vehicle id="146" type="vehDist2" depart="175.20" departLane="random" departPos="random" departSpeed="random">
        <route edges="gneE9 gneE10 -gneE14 -gneE13"/>
    </vehicle>
    <vehicle id="147" type="vehDist4" depart="176.40" departLane="random" departPos="random" departSpeed="random">
        <route edges="gneE9 gneE10 -gneE14 -gneE13"/>
    </vehicle>
    <vehicle id="148" type="vehDist0" depart="177.60" departLane="random" departPos="random" departSpeed="random">
        <route edges="gneE9 gneE10 -gneE12 -gneE11"/>
    </vehicle>
    <vehicle id="151" type="vehDist2" depart="181.20" departLane="random" departPos="random" departSpeed="random">
        <route edges="gneE9 gneE10 -gneE14 -gneE13"/>
    </vehicle>
    <vehicle id="152" type="vehDist1" depart="182.40" departLane="random" departPos="random" departSpeed="random">
        <route edges="gneE13 gneE14 -gneE10 -gneE9"/>
    </vehicle>
    <vehicle id="153" type="vehDist0" depart="183.60" departLane="random" departPos="random" departSpeed="random">
        <route edges="gneE13 gneE14 -gneE12 -gneE11"/>
    </vehicle>
    <vehicle id="155" type="vehDist4" depart="186.00" departLane="random" departPos="random" departSpeed="random">
        <route edges="gneE9 gneE10 -gneE8 -gneE7"/>
    </vehicle>
    <vehicle id="156" type="vehDist0" depart="187.20" departLane="random" departPos="random" departSpeed="random">
        <route edges="gneE9 gneE10 -gneE14 -gneE13"/>
    </vehicle>
    <vehicle id="158" type="vehDist4" depart="189.60" departLane="random" departPos="random" departSpeed="random">
        <route edges="gneE7 gneE8 -gneE10 -gneE9"/>
    </vehicle>
    <vehicle id="160" type="vehDist0" depart="192.00" departLane="random" departPos="random" departSpeed="random">
        <route edges="gneE11 gneE12 -gneE10 -gneE9"/>
    </vehicle>
    <vehicle id="162" type="vehDist4" depart="194.40" departLane="random" departPos="random" departSpeed="random">
        <route edges="gneE11 gneE12 -gneE10 -gneE9"/>
    </vehicle>
    <vehicle id="164" type="vehDist4" depart="196.80" departLane="random" departPos="random" departSpeed="random">
        <route edges="gneE9 gneE10 -gneE12 -gneE11"/>
    </vehicle>
    <vehicle id="165" type="vehDist2" depart="198.00" departLane="random" departPos="random" departSpeed="random">
        <route edges="gneE9 gneE10 -gneE14 -gneE13"/>
    </vehicle>
    <vehicle id="166" type="vehDist4" depart="199.20" departLane="random" departPos="random" departSpeed="random">
        <route edges="gneE9 gneE10 -gneE8 -gneE7"/>
    </vehicle>
    <vehicle id="167" type="vehDist3" depart="200.40" departLane="random" departPos="random" departSpeed="random">
        <route edges="gneE7 gneE8 -gneE14 -gneE13"/>
    </vehicle>
    <vehicle id="168" type="vehDist2" depart="201.60" departLane="random" departPos="random" departSpeed="random">
        <route edges="gneE7 gneE8 -gneE10 -gneE9"/>
    </vehicle>
    <vehicle id="169" type="vehDist4" depart="202.80" departLane="random" departPos="random" departSpeed="random">
        <route edges="gneE7 gneE8 -gneE10 -gneE9"/>
    </vehicle>
    <vehicle id="170" type="vehDist1" depart="204.00" departLane="random" departPos="random" departSpeed="random">
        <route edges="gneE9 gneE10 -gneE14 -gneE13"/>
    </vehicle>
    <vehicle id="172" type="vehDist0" depart="206.40" departLane="random" departPos="random" departSpeed="random">
        <route edges="gneE11 gneE12 -gneE8 -gneE7"/>
    </vehicle>
    <vehicle id="175" type="vehDist3" depart="210.00" departLane="random" departPos="random" departSpeed="random">
        <route edges="gneE7 gneE8 -gneE10 -gneE9"/>
    </vehicle>
    <vehicle id="176" type="vehDist2" depart="211.20" departLane="random" departPos="random" departSpeed="random">
        <route edges="gneE9 gneE10 -gneE12 -gneE11"/>
    </vehicle>
    <vehicle id="177" type="vehDist1" depart="212.40" departLane="random" departPos="random" departSpeed="random">
        <route edges="gneE13 gneE14 -gneE12 -gneE11"/>
    </vehicle>
    <vehicle id="180" type="vehDist2" depart="216.00" departLane="random" departPos="random" departSpeed="random">
        <route edges="gneE11 gneE12 -gneE14 -gneE13"/>
    </vehicle>
    <vehicle id="181" type="vehDist0" depart="217.20" departLane="random" departPos="random" departSpeed="random">
        <route edges="gneE11 gneE12 -gneE14 -gneE13"/>
    </vehicle>
    <vehicle id="182" type="vehDist3" depart="218.40" departLane="random" departPos="random" departSpeed="random">
        <route edges="gneE7 gneE8 -gneE10 -gneE9"/>
    </vehicle>
    <vehicle id="183" type="vehDist0" depart="219.60" departLane="random" departPos="random" departSpeed="random">
        <route edges="gneE7 gneE8 -gneE10 -gneE9"/>
    </vehicle>
    <vehicle id="184" type="vehDist0" depart="220.80" departLane="random" departPos="random" departSpeed="random">
        <route edges="gneE13 gneE14 -gneE8 -gneE7"/>
    </vehicle>
    <vehicle id="186" type="vehDist1" depart="223.20" departLane="random" departPos="random" departSpeed="random">
        <route edges="gneE13 gneE14 -gneE10 -gneE9"/>
    </vehicle>
    <vehicle id="187" type="vehDist0" depart="224.40" departLane="random" departPos="random" departSpeed="random">
        <route edges="gneE9 gneE10 -gneE8 -gneE7"/>
    </vehicle>
    <vehicle id="188" type="vehDist4" depart="225.60" departLane="random" departPos="random" departSpeed="random">
        <route edges="gneE7 gneE8 -gneE12 -gneE11"/>
    </vehicle>
    <vehicle id="189" type="vehDist1" depart="226.80" departLane="random" departPos="random" departSpeed="random">
        <route edges="gneE9 gneE10 -gneE14 -gneE13"/>
    </vehicle>
    <vehicle id="191" type="vehDist4" depart="229.20" departLane="random" departPos="random" departSpeed="random">
        <route edges="gneE13 gneE14 -gneE10 -gneE9"/>
    </vehicle>
    <vehicle id="192" type="vehDist2" depart="230.40" departLane="random" departPos="random" departSpeed="random">
        <route edges="gneE7 gneE8 -gneE10 -gneE9"/>
    </vehicle>
    <vehicle id="193" type="vehDist0" depart="231.60" departLane="random" departPos="random" departSpeed="random">
        <route edges="gneE9 gneE10 -gneE12 -gneE11"/>
    </vehicle>
    <vehicle id="195" type="vehDist4" depart="234.00" departLane="random" departPos="random" departSpeed="random">
        <route edges="gneE7 gneE8 -gneE10 -gneE9"/>
    </vehicle>
    <vehicle id="197" type="vehDist4" depart="236.40" departLane="random" departPos="random" departSpeed="random">
        <route edges="gneE11 gneE12 -gneE10 -gneE9"/>
    </vehicle>
    <vehicle id="199" type="vehDist3" depart="238.80" departLane="random" departPos="random" departSpeed="random">
        <route edges="gneE9 gneE10 -gneE14 -gneE13"/>
    </vehicle>
    <vehicle id="201" type="vehDist0" depart="241.20" departLane="random" departPos="random" departSpeed="random">
        <route edges="gneE9 gneE10 -gneE12 -gneE11"/>
    </vehicle>
    <vehicle id="202" type="vehDist2" depart="242.40" departLane="random" departPos="random" departSpeed="random">
        <route edges="gneE11 gneE12 -gneE8 -gneE7"/>
    </vehicle>
    <vehicle id="203" type="vehDist0" depart="243.60" departLane="random" departPos="random" departSpeed="random">
        <route edges="gneE11 gneE12 -gneE10 -gneE9"/>
    </vehicle>
    <vehicle id="204" type="vehDist3" depart="244.80" departLane="random" departPos="random" departSpeed="random">
        <route edges="gneE9 gneE10 -gneE12 -gneE11"/>
    </vehicle>
    <vehicle id="205" type="vehDist3" depart="246.00" departLane="random" departPos="random" departSpeed="random">
        <route edges="gneE9 gneE10 -gneE14 -gneE13"/>
    </vehicle>
    <vehicle id="206" type="vehDist3" depart="247.20" departLane="random" departPos="random" departSpeed="random">
        <route edges="gneE11 gneE12 -gneE14 -gneE13"/>
    </vehicle>
    <vehicle id="207" type="vehDist0" depart="248.40" departLane="random" departPos="random" departSpeed="random">
        <route edges="gneE7 gneE8 -gneE10 -gneE9"/>
    </vehicle>
    <vehicle id="208" type="vehDist2" depart="249.60" departLane="random" departPos="random" departSpeed="random">