<?xml version="1.0" encoding="UTF-8"?>

<!-- generated on 03/29/21 13:23:22 by Eclipse SUMO duarouter Version 1.6.0
<configuration xmlns:xsi="http://www.w3.org/2001/XMLSchema-instance" xsi:noNamespaceSchemaLocation="http://sumo.dlr.de/xsd/duarouterConfiguration.xsd">

    <input>
        <net-file value="./4-way/4-way.net.xml"/>
        <additional-files value="vTypeDistributions.add.xml"/>
        <route-files value="trips.trips.xml"/>
    </input>

    <output>
        <output-file value="./4-way/route/Period_1.rou.xml"/>
        <alternatives-output value="./4-way/route/Period_1.rou.alt.xml"/>
    </output>

    <time>
        <begin value="0"/>
        <end value="3000.0"/>
    </time>

    <report>
        <no-warnings value="true"/>
        <ignore-errors value="true"/>
        <no-step-log value="true"/>
    </report>

</configuration>
-->

<routes xmlns:xsi="http://www.w3.org/2001/XMLSchema-instance" xsi:noNamespaceSchemaLocation="http://sumo.dlr.de/xsd/routes_file.xsd">
    <vType id="vehDist4" length="4.70" minGap="1.30" maxSpeed="15.27" vClass="passenger" carFollowModel="Krauss" accel="1.737" sigma="0.574"/>
    <vehicle id="0" type="vehDist4" depart="0.00" departLane="best" departPos="random" departSpeed="random">
        <route edges="gneE13 gneE14 -gneE10 -gneE9"/>
    </vehicle>
    <vType id="vehDist3" length="4.70" minGap="1.30" maxSpeed="33.08" vClass="passenger" carFollowModel="Krauss" accel="2.593" sigma="0.407"/>
    <vehicle id="1" type="vehDist3" depart="0.80" departLane="best" departPos="random" departSpeed="random">
        <route edges="gneE11 gneE12 -gneE14 -gneE13"/>
    </vehicle>
    <vType id="vehDist0" length="4.70" minGap="1.30" maxSpeed="31.50" vClass="passenger" carFollowModel="Krauss" accel="1.801" sigma="0.549"/>
    <vehicle id="2" type="vehDist0" depart="1.60" departLane="best" departPos="random" departSpeed="random">
        <route edges="gneE9 gneE10 -gneE8 -gneE7"/>
    </vehicle>
    <vType id="vehDist2" length="4.70" minGap="1.30" maxSpeed="19.82" vClass="passenger" carFollowModel="Krauss" accel="2.695" sigma="0.266"/>
    <vehicle id="3" type="vehDist2" depart="2.40" departLane="best" departPos="random" departSpeed="random">
        <route edges="gneE11 gneE12 -gneE10 -gneE9"/>
    </vehicle>
    <vehicle id="4" type="vehDist2" depart="3.20" departLane="best" departPos="random" departSpeed="random">
        <route edges="gneE9 gneE10 -gneE12 -gneE11"/>
    </vehicle>
    <vehicle id="5" type="vehDist0" depart="4.00" departLane="best" departPos="random" departSpeed="random">
        <route edges="gneE9 gneE10 -gneE12 -gneE11"/>
    </vehicle>
    <vType id="vehDist1" length="4.70" minGap="1.30" maxSpeed="26.40" vClass="passenger" carFollowModel="Krauss" accel="1.610" sigma="0.472"/>
    <vehicle id="7" type="vehDist1" depart="5.60" departLane="best" departPos="random" departSpeed="random">
        <route edges="gneE7 gneE8 -gneE14 -gneE13"/>
    </vehicle>
    <vehicle id="8" type="vehDist2" depart="6.40" departLane="best" departPos="random" departSpeed="random">
        <route edges="gneE7 gneE8 -gneE10 -gneE9"/>
    </vehicle>
    <vehicle id="9" type="vehDist3" depart="7.20" departLane="best" departPos="random" departSpeed="random">
        <route edges="gneE11 gneE12 -gneE10 -gneE9"/>
    </vehicle>
    <vehicle id="10" type="vehDist0" depart="8.00" departLane="best" departPos="random" departSpeed="random">
        <route edges="gneE7 gneE8 -gneE14 -gneE13"/>
    </vehicle>
    <vehicle id="11" type="vehDist3" depart="8.80" departLane="best" departPos="random" departSpeed="random">
        <route edges="gneE11 gneE12 -gneE8 -gneE7"/>
    </vehicle>
    <vehicle id="12" type="vehDist2" depart="9.60" departLane="best" departPos="random" departSpeed="random">
        <route edges="gneE13 gneE14 -gneE10 -gneE9"/>
    </vehicle>
    <vehicle id="13" type="vehDist2" depart="10.40" departLane="best" departPos="random" departSpeed="random">
        <route edges="gneE13 gneE14 -gneE8 -gneE7"/>
    </vehicle>
    <vehicle id="14" type="vehDist2" depart="11.20" departLane="best" departPos="random" departSpeed="random">
        <route edges="gneE7 gneE8 -gneE12 -gneE11"/>
    </vehicle>
    <vehicle id="16" type="vehDist0" depart="12.80" departLane="best" departPos="random" departSpeed="random">
        <route edges="gneE9 gneE10 -gneE8 -gneE7"/>
    </vehicle>
    <vehicle id="17" type="vehDist4" depart="13.60" departLane="best" departPos="random" departSpeed="random">
        <route edges="gneE13 gneE14 -gneE10 -gneE9"/>
    </vehicle>
    <vehicle id="18" type="vehDist1" depart="14.40" departLane="best" departPos="random" departSpeed="random">
        <route edges="gneE9 gneE10 -gneE12 -gneE11"/>
    </vehicle>
    <vehicle id="19" type="vehDist3" depart="15.20" departLane="best" departPos="random" departSpeed="random">
        <route edges="gneE7 gneE8 -gneE12 -gneE11"/>
    </vehicle>
    <vehicle id="22" type="vehDist1" depart="17.60" departLane="best" departPos="random" departSpeed="random">
        <route edges="gneE7 gneE8 -gneE14 -gneE13"/>
    </vehicle>
    <vehicle id="23" type="vehDist3" depart="18.40" departLane="best" departPos="random" departSpeed="random">
        <route edges="gneE13 gneE14 -gneE12 -gneE11"/>
    </vehicle>
    <vehicle id="24" type="vehDist4" depart="19.20" departLane="best" departPos="random" departSpeed="random">
        <route edges="gneE7 gneE8 -gneE14 -gneE13"/>
    </vehicle>
    <vehicle id="25" type="vehDist4" depart="20.00" departLane="best" departPos="random" departSpeed="random">
        <route edges="gneE11 gneE12 -gneE10 -gneE9"/>
    </vehicle>
    <vehicle id="26" type="vehDist4" depart="20.80" departLane="best" departPos="random" departSpeed="random">
        <route edges="gneE7 gneE8 -gneE12 -gneE11"/>
    </vehicle>
    <vehicle id="27" type="vehDist1" depart="21.60" departLane="best" departPos="random" departSpeed="random">
        <route edges="gneE9 gneE10 -gneE8 -gneE7"/>
    </vehicle>
    <vehicle id="28" type="vehDist2" depart="22.40" departLane="best" departPos="random" departSpeed="random">
        <route edges="gneE11 gneE12 -gneE8 -gneE7"/>
    </vehicle>
    <vehicle id="30" type="vehDist0" depart="24.00" departLane="best" departPos="random" departSpeed="random">
        <route edges="gneE11 gneE12 -gneE8 -gneE7"/>
    </vehicle>
    <vehicle id="31" type="vehDist1" depart="24.80" departLane="best" departPos="random" departSpeed="random">
        <route edges="gneE13 gneE14 -gneE8 -gneE7"/>
    </vehicle>
    <vehicle id="32" type="vehDist3" depart="25.60" departLane="best" departPos="random" departSpeed="random">
        <route edges="gneE9 gneE10 -gneE12 -gneE11"/>
    </vehicle>
    <vehicle id="33" type="vehDist0" depart="26.40" departLane="best" departPos="random" departSpeed="random">
        <route edges="gneE9 gneE10 -gneE14 -gneE13"/>
    </vehicle>
    <vehicle id="34" type="vehDist4" depart="27.20" departLane="best" departPos="random" departSpeed="random">
        <route edges="gneE11 gneE12 -gneE14 -gneE13"/>
    </vehicle>
    <vehicle id="35" type="vehDist0" depart="28.00" departLane="best" departPos="random" departSpeed="random">
        <route edges="gneE7 gneE8 -gneE12 -gneE11"/>
    </vehicle>
    <vehicle id="37" type="vehDist1" depart="29.60" departLane="best" departPos="random" departSpeed="random">
        <route edges="gneE9 gneE10 -gneE12 -gneE11"/>
    </vehicle>
    <vehicle id="38" type="vehDist0" depart="30.40" departLane="best" departPos="random" departSpeed="random">
        <route edges="gneE9 gneE10 -gneE14 -gneE13"/>
    </vehicle>
    <vehicle id="39" type="vehDist0" depart="31.20" departLane="best" departPos="random" departSpeed="random">
        <route edges="gneE7 gneE8 -gneE14 -gneE13"/>
    </vehicle>
    <vehicle id="40" type="vehDist2" depart="32.00" departLane="best" departPos="random" departSpeed="random">
        <route edges="gneE7 gneE8 -gneE14 -gneE13"/>
    </vehicle>
    <vehicle id="41" type="vehDist4" depart="32.80" departLane="best" departPos="random" departSpeed="random">
        <route edges="gneE13 gneE14 -gneE12 -gneE11"/>
    </vehicle>
    <vehicle id="43" type="vehDist1" depart="34.40" departLane="best" departPos="random" departSpeed="random">
        <route edges="gneE13 gneE14 -gneE10 -gneE9"/>
    </vehicle>
    <vehicle id="44" type="vehDist0" depart="35.20" departLane="best" departPos="random" departSpeed="random">
        <route edges="gneE13 gneE14 -gneE12 -gneE11"/>
    </vehicle>
    <vehicle id="46" type="vehDist1" depart="36.80" departLane="best" departPos="random" departSpeed="random">
        <route edges="gneE9 gneE10 -gneE12 -gneE11"/>
    </vehicle>
    <vehicle id="48" type="vehDist0" depart="38.40" departLane="best" departPos="random" departSpeed="random">
        <route edges="gneE7 gneE8 -gneE12 -gneE11"/>
    </vehicle>
    <vehicle id="49" type="vehDist3" depart="39.20" departLane="best" departPos="random" departSpeed="random">
        <route edges="gneE7 gneE8 -gneE12 -gneE11"/>
    </vehicle>
    <vehicle id="50" type="vehDist3" depart="40.00" departLane="best" departPos="random" departSpeed="random">
        <route edges="gneE7 gneE8 -gneE14 -gneE13"/>
    </vehicle>
    <vehicle id="51" type="vehDist2" depart="40.80" departLane="best" departPos="random" departSpeed="random">
        <route edges="gneE13 gneE14 -gneE12 -gneE11"/>
    </vehicle>
    <vehicle id="52" type="vehDist3" depart="41.60" departLane="best" departPos="random" departSpeed="random">
        <route edges="gneE11 gneE12 -gneE14 -gneE13"/>
    </vehicle>
    <vehicle id="53" type="vehDist4" depart="42.40" departLane="best" departPos="random" departSpeed="random">
        <route edges="gneE7 gneE8 -gneE12 -gneE11"/>
    </vehicle>
    <vehicle id="54" type="vehDist4" depart="43.20" departLane="best" departPos="random" departSpeed="random">
        <route edges="gneE13 gneE14 -gneE10 -gneE9"/>
    </vehicle>
    <vehicle id="59" type="vehDist4" depart="47.20" departLane="best" departPos="random" departSpeed="random">
        <route edges="gneE11 gneE12 -gneE10 -gneE9"/>
    </vehicle>
    <vehicle id="60" type="vehDist0" depart="48.00" departLane="best" departPos="random" departSpeed="random">
        <route edges="gneE7 gneE8 -gneE10 -gneE9"/>
    </vehicle>
    <vehicle id="61" type="vehDist3" depart="48.80" departLane="best" departPos="random" departSpeed="random">
        <route edges="gneE13 gneE14 -gneE10 -gneE9"/>
    </vehicle>
    <vehicle id="64" type="vehDist1" depart="51.20" departLane="best" departPos="random" departSpeed="random">
        <route edges="gneE11 gneE12 -gneE8 -gneE7"/>
    </vehicle>
    <vehicle id="65" type="vehDist2" depart="52.00" departLane="best" departPos="random" departSpeed="random">
        <route edges="gneE13 gneE14 -gneE12 -gneE11"/>
    </vehicle>
    <vehicle id="66" type="vehDist4" depart="52.80" departLane="best" departPos="random" departSpeed="random">
        <route edges="gneE7 gneE8 -gneE10 -gneE9"/>
    </vehicle>
    <vehicle id="67" type="vehDist0" depart="53.60" departLane="best" departPos="random" departSpeed="random">
        <route edges="gneE7 gneE8 -gneE12 -gneE11"/>
    </vehicle>
    <vehicle id="68" type="vehDist0" depart="54.40" departLane="best" departPos="random" departSpeed="random">
        <route edges="gneE7 gneE8 -gneE10 -gneE9"/>
    </vehicle>
    <vehicle id="69" type="vehDist4" depart="55.20" departLane="best" departPos="random" departSpeed="random">
        <route edges="gneE11 gneE12 -gneE10 -gneE9"/>
    </vehicle>
    <vehicle id="71" type="vehDist1" depart="56.80" departLane="best" departPos="random" departSpeed="random">
        <route edges="gneE9 gneE10 -gneE14 -gneE13"/>
    </vehicle>
    <vehicle id="72" type="vehDist0" depart="57.60" departLane="best" departPos="random" departSpeed="random">
        <route edges="gneE11 gneE12 -gneE8 -gneE7"/>
    </vehicle>
    <vehicle id="73" type="vehDist2" depart="58.40" departLane="best" departPos="random" departSpeed="random">
        <route edges="gneE9 gneE10 -gneE14 -gneE13"/>
    </vehicle>
    <vehicle id="75" type="vehDist0" depart="60.00" departLane="best" departPos="random" departSpeed="random">
        <route edges="gneE9 gneE10 -gneE12 -gneE11"/>
    </vehicle>
    <vehicle id="76" type="vehDist0" depart="60.80" departLane="best" departPos="random" departSpeed="random">
        <route edges="gneE11 gneE12 -gneE8 -gneE7"/>
    </vehicle>
    <vehicle id="77" type="vehDist0" depart="61.60" departLane="best" departPos="random" departSpeed="random">
        <route edges="gneE13 gneE14 -gneE12 -gneE11"/>
    </vehicle>
    <vehicle id="79" type="vehDist1" depart="63.20" departLane="best" departPos="random" departSpeed="random">
        <route edges="gneE9 gneE10 -gneE8 -gneE7"/>
    </vehicle>
    <vehicle id="81" type="vehDist1" depart="64.80" departLane="best" departPos="random" departSpeed="random">
        <route edges="gneE9 gneE10 -gneE12 -gneE11"/>
    </vehicle>
    <vehicle id="82" type="vehDist3" depart="65.60" departLane="best" departPos="random" departSpeed="random">
        <route edges="gneE7 gneE8 -gneE14 -gneE13"/>
    </vehicle>
    <vehicle id="84" type="vehDist3" depart="67.20" departLane="best" departPos="random" departSpeed="random">
        <route edges="gneE13 gneE14 -gneE12 -gneE11"/>
    </vehicle>
    <vehicle id="85" type="vehDist1" depart="68.00" departLane="best" departPos="random" departSpeed="random">
        <route edges="gneE7 gneE8 -gneE12 -gneE11"/>
    </vehicle>
    <vehicle id="86" type="vehDist2" depart="68.80" departLane="best" departPos="random" departSpeed="random">
        <route edges="gneE13 gneE14 -gneE8 -gneE7"/>
    </vehicle>
    <vehicle id="87" type="vehDist4" depart="69.60" departLane="best" departPos="random" departSpeed="random">
        <route edges="gneE7 gneE8 -gneE12 -gneE11"/>
    </vehicle>
    <vehicle id="88" type="vehDist2" depart="70.40" departLane="best" departPos="random" departSpeed="random">
        <route edges="gneE11 gneE12 -gneE14 -gneE13"/>
    </vehicle>
    <vehicle id="89" type="vehDist2" depart="71.20" departLane="best" departPos="random" departSpeed="random">
        <route edges="gneE9 gneE10 -gneE8 -gneE7"/>
    </vehicle>
    <vehicle id="92" type="vehDist0" depart="73.60" departLane="best" departPos="random" departSpeed="random">
        <route edges="gneE13 gneE14 -gneE10 -gneE9"/>
    </vehicle>
    <vehicle id="93" type="vehDist1" depart="74.40" departLane="best" departPos="random" departSpeed="random">
        <route edges="gneE11 gneE12 -gneE10 -gneE9"/>
    </vehicle>
    <vehicle id="95" type="vehDist4" depart="76.00" departLane="best" departPos="random" departSpeed="random">
        <route edges="gneE9 gneE10 -gneE12 -gneE11"/>
    </vehicle>
    <vehicle id="96" type="vehDist3" depart="76.80" departLane="best" departPos="random" departSpeed="random">
        <route edges="gneE11 gneE12 -gneE14 -gneE13"/>
    </vehicle>
    <vehicle id="97" type="vehDist4" depart="77.60" departLane="best" departPos="random" departSpeed="random">
        <route edges="gneE7 gneE8 -gneE10 -gneE9"/>
    </vehicle>
    <vehicle id="98" type="vehDist2" depart="78.40" departLane="best" departPos="random" departSpeed="random">
        <route edges="gneE9 gneE10 -gneE12 -gneE11"/>
    </vehicle>
    <vehicle id="99" type="vehDist2" depart="79.20" departLane="best" departPos="random" departSpeed="random">
        <route edges="gneE13 gneE14 -gneE12 -gneE11"/>
    </vehicle>
    <vehicle id="101" type="vehDist2" depart="80.80" departLane="best" departPos="random" departSpeed="random">
        <route edges="gneE13 gneE14 -gneE12 -gneE11"/>
    </vehicle>
    <vehicle id="102" type="vehDist4" depart="81.60" departLane="best" departPos="random" departSpeed="random">
        <route edges="gneE11 gneE12 -gneE8 -gneE7"/>
    </vehicle>
    <vehicle id="104" type="vehDist4" depart="83.20" departLane="best" departPos="random" departSpeed="random">
        <route edges="gneE11 gneE12 -gneE14 -gneE13"/>
    </vehicle>
    <vehicle id="107" type="vehDist1" depart="85.60" departLane="best" departPos="random" departSpeed="random">
        <route edges="gneE7 gneE8 -gneE12 -gneE11"/>
    </vehicle>
    <vehicle id="108" type="vehDist3" depart="86.40" departLane="best" departPos="random" departSpeed="random">
        <route edges="gneE9 gneE10 -gneE14 -gneE13"/>
    </vehicle>
    <vehicle id="109" type="vehDist0" depart="87.20" departLane="best" departPos="random" departSpeed="random">
        <route edges="gneE11 gneE12 -gneE10 -gneE9"/>
    </vehicle>
    <vehicle id="110" type="vehDist2" depart="88.00" departLane="best" departPos="random" departSpeed="random">
        <route edges="gneE9 gneE10 -gneE12 -gneE11"/>
    </vehicle>
    <vehicle id="113" type="vehDist1" depart="90.40" departLane="best" departPos="random" departSpeed="random">
        <route edges="gneE13 gneE14 -gneE12 -gneE11"/>
    </vehicle>
    <vehicle id="114" type="vehDist3" depart="91.20" departLane="best" departPos="random" departSpeed="random">
        <route edges="gneE9 gneE10 -gneE12 -gneE11"/>
    </vehicle>
    <vehicle id="117" type="vehDist0" depart="93.60" departLane="best" departPos="random" departSpeed="random">
        <route edges="gneE7 gneE8 -gneE10 -gneE9"/>
    </vehicle>
    <vehicle id="119" type="vehDist1" depart="95.20" departLane="best" departPos="random" departSpeed="random">
        <route edges="gneE9 gneE10 -gneE8 -gneE7"/>
    </vehicle>
    <vehicle id="120" type="vehDist2" depart="96.00" departLane="best" departPos="random" departSpeed="random">
        <route edges="gneE11 gneE12 -gneE10 -gneE9"/>
    </vehicle>
    <vehicle id="121" type="vehDist0" depart="96.80" departLane="best" departPos="random" departSpeed="random">
        <route edges="gneE7 gneE8 -gneE12 -gneE11"/>
    </vehicle>
    <vehicle id="122" type="vehDist1" depart="97.60" departLane="best" departPos="random" departSpeed="random">
        <route edges="gneE7 gneE8 -gneE12 -gneE11"/>
    </vehicle>
    <vehicle id="124" type="vehDist4" depart="99.20" departLane="best" departPos="random" departSpeed="random">
        <route edges="gneE11 gneE12 -gneE10 -gneE9"/>
    </vehicle>
    <vehicle id="128" type="vehDist1" depart="102.40" departLane="best" departPos="random" departSpeed="random">
        <route edges="gneE9 gneE10 -gneE12 -gneE11"/>
    </vehicle>
    <vehicle id="130" type="vehDist2" depart="104.00" departLane="best" departPos="random" departSpeed="random">
        <route edges="gneE9 gneE10 -gneE8 -gneE7"/>
    </vehicle>
    <vehicle id="131" type="vehDist2" depart="104.80" departLane="best" departPos="random" departSpeed="random">
        <route edges="gneE11 gneE12 -gneE8 -gneE7"/>
    </vehicle>
    <vehicle id="132" type="vehDist1" depart="105.60" departLane="best" departPos="random" departSpeed="random">
        <route edges="gneE13 gneE14 -gneE10 -gneE9"/>
    </vehicle>
    <vehicle id="134" type="vehDist3" depart="107.20" departLane="best" departPos="random" departSpeed="random">
        <route edges="gneE11 gneE12 -gneE8 -gneE7"/>
    </vehicle>
    <vehicle id="135" type="vehDist2" depart="108.00" departLane="best" departPos="random" departSpeed="random">
        <route edges="gneE7 gneE8 -gneE14 -gneE13"/>
    </vehicle>
    <vehicle id="136" type="vehDist2" depart="108.80" departLane="best" departPos="random" departSpeed="random">
        <route edges="gneE9 gneE10 -gneE14 -gneE13"/>
    </vehicle>
    <vehicle id="138" type="vehDist4" depart="110.40" departLane="best" departPos="random" departSpeed="random">
        <route edges="gneE7 gneE8 -gneE14 -gneE13"/>
    </vehicle>
    <vehicle id="139" type="vehDist3" depart="111.20" departLane="best" departPos="random" departSpeed="random">
        <route edges="gneE13 gneE14 -gneE12 -gneE11"/>
    </vehicle>
    <vehicle id="140" type="vehDist4" depart="112.00" departLane="best" departPos="random" departSpeed="random">
        <route edges="gneE7 gneE8 -gneE12 -gneE11"/>
    </vehicle>
    <vehicle id="141" type="vehDist4" depart="112.80" departLane="best" departPos="random" departSpeed="random">
        <route edges="gneE11 gneE12 -gneE10 -gneE9"/>
    </vehicle>
    <vehicle id="142" type="vehDist2" depart="113.60" departLane="best" departPos="random" departSpeed="random">
        <route edges="gneE7 gneE8 -gneE10 -gneE9"/>
    </vehicle>
    <vehicle id="145" type="vehDist4" depart="116.00" departLane="best" departPos="random" departSpeed="random">
        <route edges="gneE7 gneE8 -gneE12 -gneE11"/>
    </vehicle>
    <vehicle id="146" type="vehDist2" depart="116.80" departLane="best" departPos="random" departSpeed="random">
        <route edges="gneE9 gneE10 -gneE8 -gneE7"/>
    </vehicle>
    <vehicle id="148" type="vehDist0" depart="118.40" departLane="best" departPos="random" departSpeed="random">
        <route edges="gneE11 gneE12 -gneE8 -gneE7"/>
    </vehicle>
    <vehicle id="152" type="vehDist1" depart="121.60" departLane="best" departPos="random" departSpeed="random">
        <route edges="gneE11 gneE12 -gneE8 -gneE7"/>
    </vehicle>
    <vehicle id="153" type="vehDist0" depart="122.40" departLane="best" departPos="random" departSpeed="random">
        <route edges="gneE11 gneE12 -gneE14 -gneE13"/>
    </vehicle>
    <vehicle id="154" type="vehDist3" depart="123.20" departLane="best" departPos="random" departSpeed="random">
        <route edges="gneE11 gneE12 -gneE14 -gneE13"/>
    </vehicle>
    <vehicle id="155" type="vehDist4" depart="124.00" departLane="best" departPos="random" departSpeed="random">
        <route edges="gneE9 gneE10 -gneE8 -gneE7"/>
    </vehicle>
    <vehicle id="156" type="vehDist0" depart="124.80" departLane="best" departPos="random" departSpeed="random">
        <route edges="gneE11 gneE12 -gneE14 -gneE13"/>
    </vehicle>
    <vehicle id="157" type="vehDist2" depart="125.60" departLane="best" departPos="random" departSpeed="random">
        <route edges="gneE7 gneE8 -gneE12 -gneE11"/>
    </vehicle>
    <vehicle id="159" type="vehDist2" depart="127.20" departLane="best" departPos="random" departSpeed="random">
        <route edges="gneE11 gneE12 -gneE8 -gneE7"/>
    </vehicle>
    <vehicle id="161" type="vehDist4" depart="128.80" departLane="best" departPos="random" departSpeed="random">
        <route edges="gneE7 gneE8 -gneE12 -gneE11"/>
    </vehicle>
    <vehicle id="163" type="vehDist1" depart="130.40" departLane="best" departPos="random" departSpeed="random">
        <route edges="gneE11 gneE12 -gneE14 -gneE13"/>
    </vehicle>
    <vehicle id="164" type="vehDist4" depart="131.20" departLane="best" departPos="random" departSpeed="random">
        <route edges="gneE7 gneE8 -gneE10 -gneE9"/>
    </vehicle>
    <vehicle id="165" type="vehDist2" depart="132.00" departLane="best" departPos="random" departSpeed="random">
        <route edges="gneE13 gneE14 -gneE8 -gneE7"/>
    </vehicle>
    <vehicle id="166" type="vehDist4" depart="132.80" departLane="best" departPos="random" departSpeed="random">
        <route edges="gneE13 gneE14 -gneE8 -gneE7"/>
    </vehicle>
    <vehicle id="167" type="vehDist3" depart="133.60" departLane="best" departPos="random" departSpeed="random">
        <route edges="gneE11 gneE12 -gneE8 -gneE7"/>
    </vehicle>
    <vehicle id="168" type="vehDist2" depart="134.40" departLane="best" departPos="random" departSpeed="random">
        <route edges="gneE9 gneE10 -gneE12 -gneE11"/>
    </vehicle>
    <vehicle id="171" type="vehDist1" depart="136.80" departLane="best" departPos="random" departSpeed="random">
        <route edges="gneE13 gneE14 -gneE12 -gneE11"/>
    </vehicle>
    <vehicle id="172" type="vehDist0" depart="137.60" departLane="best" departPos="random" departSpeed="random">
        <route edges="gneE13 gneE14 -gneE10 -gneE9"/>
    </vehicle>
    <vehicle id="173" type="vehDist2" depart="138.40" departLane="best" departPos="random" departSpeed="random">
        <route edges="gneE7 gneE8 -gneE14 -gneE13"/>
    </vehicle>
    <vehicle id="174" type="vehDist1" depart="139.20" departLane="best" departPos="random" departSpeed="random">
        <route edges="gneE13 gneE14 -gneE12 -gneE11"/>
    </vehicle>
    <vehicle id="176" type="vehDist2" depart="140.80" departLane="best" departPos="random" departSpeed="random">
        <route edges="gneE7 gneE8 -gneE12 -gneE11"/>
    </vehicle>
    <vehicle id="177" type="vehDist1" depart="141.60" departLane="best" departPos="random" departSpeed="random">
        <route edges="gneE9 gneE10 -gneE8 -gneE7"/>
    </vehicle>
    <vehicle id="178" type="vehDist4" depart="142.40" departLane="best" departPos="random" departSpeed="random">
        <route edges="gneE7 gneE8 -gneE10 -gneE9"/>
    </vehicle>
    <vehicle id="179" type="vehDist0" depart="143.20" departLane="best" departPos="random" departSpeed="random">
        <route edges="gneE13 gneE14 -gneE12 -gneE11"/>
    </vehicle>
    <vehicle id="180" type="vehDist2" depart="144.00" departLane="best" departPos="random" departSpeed="random">
        <route edges="gneE7 gneE8 -gneE14 -gneE13"/>
    </vehicle>
    <vehicle id="185" type="vehDist1" depart="148.00" departLane="best" departPos="random" departSpeed="random">
        <route edges="gneE11 gneE12 -gneE14 -gneE13"/>
    </vehicle>
    <vehicle id="186" type="vehDist1" depart="148.80" departLane="best" departPos="random" departSpeed="random">
        <route edges="gneE11 gneE12 -gneE8 -gneE7"/>
    </vehicle>
    <vehicle id="189" type="vehDist1" depart="151.20" departLane="best" departPos="random" departSpeed="random">
        <route edges="gneE13 gneE14 -gneE12 -gneE11"/>
    </vehicle>
    <vehicle id="191" type="vehDist4" depart="152.80" departLane="best" departPos="random" departSpeed="random">
        <route edges="gneE13 gneE14 -gneE8 -gneE7"/>
    </vehicle>
    <vehicle id="192" type="vehDist2" depart="153.60" departLane="best" departPos="random" departSpeed="random">
        <route edges="gneE9 gneE10 -gneE12 -gneE11"/>
    </vehicle>
    <vehicle id="193" type="vehDist0" depart="154.40" departLane="best" departPos="random" departSpeed="random">
        <route edges="gneE7 gneE8 -gneE12 -gneE11"/>
    </vehicle>
    <vehicle id="194" type="vehDist1" depart="155.20" departLane="best" departPos="random" departSpeed="random">
        <route edges="gneE7 gneE8 -gneE10 -gneE9"/>
    </vehicle>
    <vehicle id="195" type="vehDist4" depart="156.00" departLane="best" departPos="random" departSpeed="random">
        <route edges="gneE9 gneE10 -gneE8 -gneE7"/>
    </vehicle>
    <vehicle id="196" type="vehDist1" depart="156.80" departLane="best" departPos="random" departSpeed="random">
        <route edges="gneE13 gneE14 -gneE10 -gneE9"/>
    </vehicle>
    <vehicle id="197" type="vehDist4" depart="157.60" departLane="best" departPos="random" departSpeed="random">
        <route edges="gneE13 gneE14 -gneE10 -gneE9"/>
    </vehicle>
    <vehicle id="198" type="vehDist2" depart="158.40" departLane="best" departPos="random" departSpeed="random">
        <route edges="gneE11 gneE12 -gneE8 -gneE7"/>
    </vehicle>
    <vehicle id="199" type="vehDist3" depart="159.20" departLane="best" departPos="random" departSpeed="random">
        <route edges="gneE11 gneE12 -gneE14 -gneE13"/>
    </vehicle>
    <vehicle id="200" type="vehDist2" depart="160.00" departLane="best" departPos="random" departSpeed="random">
        <route edges="gneE13 gneE14 -gneE8 -gneE7"/>
    </vehicle>
    <vehicle id="201" type="vehDist0" depart="160.80" departLane="best" departPos="random" departSpeed="random">
        <route edges="gneE7 gneE8 -gneE10 -gneE9"/>
    </vehicle>
    <vehicle id="202" type="vehDist2" depart="161.60" departLane="best" departPos="random" departSpeed="random">
        <route edges="gneE9 gneE10 -gneE14 -gneE13"/>
    </vehicle>
    <vehicle id="203" type="vehDist0" depart="162.40" departLane="best" departPos="random" departSpeed="random">
        <route edges="gneE11 gneE12 -gneE10 -gneE9"/>
    </vehicle>
    <vehicle id="204" type="vehDist3" depart="163.20" departLane="best" departPos="random" departSpeed="random">
        <route edges="gneE11 gneE12 -gneE8 -gneE7"/>
    </vehicle>
    <vehicle id="205" type="vehDist3" depart="164.00" departLane="best" departPos="random" departSpeed="random">
        <route edges="gneE13 gneE14 -gneE12 -gneE11"/>
    </vehicle>
    <vehicle id="207" type="vehDist0" depart="165.60" departLane="best" departPos="random" departSpeed="random">
        <route edges="gneE13 gneE14 -gneE10 -gneE9"/>
    </vehicle>
    <vehicle id="208" type="vehDist2" depart="166.40" departLane="best" departPos="random" departSpeed="random">
        <route edges="gneE7 gneE8 -gneE12 -gneE11"/>
    </vehicle>
    <vehicle id="209" type="vehDist0" depart="167.20" departLane="best" departPos="random" departSpeed="random">
        <route edges="gneE13 gneE14 -gneE8 -gneE7"/>
    </vehicle>
    <vehicle id="211" type="vehDist0" depart="168.80" departLane="best" departPos="random" departSpeed="random">
        <route edges="gneE9 gneE10 -gneE14 -gneE13"/>
    </vehicle>
    <vehicle id="212" type="vehDist2" depart="169.60" departLane="best" departPos="random" departSpeed="random">
        <route edges="gneE9 gneE10 -gneE8 -gneE7"/>
    </vehicle>
    <vehicle id="213" type="vehDist3" depart="170.40" departLane="best" departPos="random" departSpeed="random">
        <route edges="gneE13 gneE14 -gneE8 -gneE7"/>
    </vehicle>
    <vehicle id="216" type="vehDist0" depart="172.80" departLane="best" departPos="random" departSpeed="random">
        <route edges="gneE7 gneE8 -gneE14 -gneE13"/>
    </vehicle>
    <vehicle id="219" type="vehDist0" depart="175.20" departLane="best" departPos="random" departSpeed="random">
        <route edges="gneE9 gneE10 -gneE14 -gneE13"/>
    </vehicle>
    <vehicle id="220" type="vehDist2" depart="176.00" departLane="best" departPos="random" departSpeed="random">