<?xml version="1.0" encoding="UTF-8"?>

<!-- generated on 10/26/20 22:57:40 by Eclipse SUMO duarouter Version 1.6.0
<configuration xmlns:xsi="http://www.w3.org/2001/XMLSchema-instance" xsi:noNamespaceSchemaLocation="http://sumo.dlr.de/xsd/duarouterConfiguration.xsd">

    <input>
        <net-file value="2_2Cross.net.xml"/>
        <route-files value="trips.trips.xml"/>
    </input>

    <output>
        <output-file value="trips.trips.xml.tmp"/>
        <write-trips value="true"/>
    </output>

    <time>
        <begin value="0"/>
        <end value="1000.0"/>
    </time>

    <report>
        <no-warnings value="true"/>
        <ignore-errors value="true"/>
        <no-step-log value="true"/>
    </report>

</configuration>
-->

<routes xmlns:xsi="http://www.w3.org/2001/XMLSchema-instance" xsi:noNamespaceSchemaLocation="http://sumo.dlr.de/xsd/routes_file.xsd">
    <vType id="taxi" vClass="taxi"/>
    <trip id="0" type="taxi" depart="0.00" departLane="best" departPos="random" departSpeed="max" from="gneE61" to="gneE56"/>
    <trip id="1" type="taxi" depart="1.00" departLane="best" departPos="random" departSpeed="max" from="gneE61" to="gneE56"/>
    <trip id="2" type="taxi" depart="2.00" departLane="best" departPos="random" departSpeed="max" from="gneE55" to="gneE52"/>
    <trip id="3" type="taxi" depart="3.00" departLane="best" departPos="random" departSpeed="max" from="gneE59" to="gneE58"/>
    <trip id="4" type="taxi" depart="4.00" departLane="best" departPos="random" departSpeed="max" from="gneE55" to="gneE52"/>
    <trip id="5" type="taxi" depart="5.00" departLane="best" departPos="random" departSpeed="max" from="gneE57" to="gneE52"/>
    <trip id="6" type="taxi" depart="6.00" departLane="best" departPos="random" departSpeed="max" from="gneE57" to="gneE52"/>
    <trip id="7" type="taxi" depart="7.00" departLane="best" departPos="random" departSpeed="max" from="gneE55" to="gneE54"/>
    <trip id="8" type="taxi" depart="8.00" departLane="best" departPos="random" departSpeed="max" from="gneE65" to="gneE52"/>
    <trip id="9" type="taxi" depart="9.00" departLane="best" departPos="random" departSpeed="max" from="gneE65" to="gneE64"/>
    <trip id="10" type="taxi" depart="10.00" departLane="best" departPos="random" departSpeed="max" from="gneE59" to="gneE62"/>
    <trip id="11" type="taxi" depart="11.00" departLane="best" departPos="random" departSpeed="max" from="gneE65" to="gneE60"/>
    <trip id="12" type="taxi" depart="12.00" departLane="best" departPos="random" departSpeed="max" from="gneE61" to="gneE58"/>
    <trip id="13" type="taxi" depart="13.00" departLane="best" departPos="random" departSpeed="max" from="gneE53" to="gneE64"/>
    <trip id="14" type="taxi" depart="14.00" departLane="best" departPos="random" departSpeed="max" from="gneE67" to="gneE52"/>
    <trip id="15" type="taxi" depart="15.00" departLane="best" departPos="random" departSpeed="max" from="gneE57" to="gneE58"/>
    <trip id="16" type="taxi" depart="16.00" departLane="best" departPos="random" departSpeed="max" from="gneE53" to="gneE54"/>
    <trip id="17" type="taxi" depart="17.00" departLane="best" departPos="random" departSpeed="max" from="gneE61" to="gneE56"/>
    <trip id="18" type="taxi" depart="18.00" departLane="best" departPos="random" departSpeed="max" from="gneE65" to="gneE64"/>
    <trip id="19" type="taxi" depart="19.00" departLane="best" departPos="random" departSpeed="max" from="gneE65" to="gneE64"/>
    <trip id="20" type="taxi" depart="20.00" departLane="best" departPos="random" departSpeed="max" from="gneE67" to="gneE54"/>
    <trip id="21" type="taxi" depart="21.00" departLane="best" departPos="random" departSpeed="max" from="gneE53" to="gneE64"/>
    <trip id="22" type="taxi" depart="22.00" departLane="best" departPos="random" departSpeed="max" from="gneE63" to="gneE64"/>
    <trip id="23" type="taxi" depart="23.00" departLane="best" departPos="random" departSpeed="max" from="gneE57" to="gneE56"/>
    <trip id="24" type="taxi" depart="24.00" departLane="best" departPos="random" departSpeed="max" from="gneE63" to="gneE64"/>
    <trip id="25" type="taxi" depart="25.00" departLane="best" departPos="random" departSpeed="max" from="gneE55" to="gneE56"/>
    <trip id="26" type="taxi" depart="26.00" departLane="best" departPos="random" departSpeed="max" from="gneE67" to="gneE52"/>
    <trip id="27" type="taxi" depart="27.00" departLane="best" departPos="random" departSpeed="max" from="gneE67" to="gneE62"/>
    <trip id="28" type="taxi" depart="28.00" departLane="best" departPos="random" departSpeed="max" from="gneE57" to="gneE56"/>
    <trip id="29" type="taxi" depart="29.00" departLane="best" departPos="random" departSpeed="max" from="gneE61" to="gneE64"/>
    <trip id="30" type="taxi" depart="30.00" departLane="best" departPos="random" departSpeed="max" from="gneE57" to="gneE54"/>
    <trip id="31" type="taxi" depart="31.00" departLane="best" departPos="random" departSpeed="max" from="gneE55" to="gneE56"/>
    <trip id="32" type="taxi" depart="32.00" departLane="best" departPos="random" departSpeed="max" from="gneE65" to="gneE60"/>
    <trip id="33" type="taxi" depart="33.00" departLane="best" departPos="random" departSpeed="max" from="gneE63" to="gneE60"/>
    <trip id="34" type="taxi" depart="34.00" departLane="best" departPos="random" departSpeed="max" from="gneE65" to="gneE64"/>
    <trip id="35" type="taxi" depart="35.00" departLane="best" departPos="random" departSpeed="max" from="gneE63" to="gneE60"/>
    <trip id="36" type="taxi" depart="36.00" departLane="best" departPos="random" departSpeed="max" from="gneE55" to="gneE52"/>
    <trip id="37" type="taxi" depart="37.00" departLane="best" departPos="random" departSpeed="max" from="gneE57" to="gneE58"/>
    <trip id="38" type="taxi" depart="38.00" departLane="best" departPos="random" departSpeed="max" from="gneE55" to="gneE56"/>
    <trip id="39" type="taxi" depart="39.00" departLane="best" departPos="random" departSpeed="max" from="gneE65" to="gneE62"/>
    <trip id="40" type="taxi" depart="40.00" departLane="best" departPos="random" departSpeed="max" from="gneE53" to="gneE52"/>
    <trip id="41" type="taxi" depart="41.00" departLane="best" departPos="random" departSpeed="max" from="gneE53" to="gneE52"/>
    <trip id="42" type="taxi" depart="42.00" departLane="best" departPos="random" departSpeed="max" from="gneE53" to="gneE54"/>
    <trip id="43" type="taxi" depart="43.00" departLane="best" departPos="random" departSpeed="max" from="gneE61" to="gneE56"/>
    <trip id="44" type="taxi" depart="44.00" departLane="best" departPos="random" departSpeed="max" from="gneE53" to="gneE66"/>
    <trip id="45" type="taxi" depart="45.00" departLane="best" departPos="random" departSpeed="max" from="gneE55" to="gneE58"/>
    <trip id="46" type="taxi" depart="46.00" departLane="best" departPos="random" departSpeed="max" from="gneE55" to="gneE66"/>
    <trip id="47" type="taxi" depart="47.00" departLane="best" departPos="random" departSpeed="max" from="gneE67" to="gneE52"/>
    <trip id="48" type="taxi" depart="48.00" departLane="best" departPos="random" departSpeed="max" from="gneE53" to="gneE64"/>
    <trip id="49" type="taxi" depart="49.00" departLane="best" departPos="random" departSpeed="max" from="gneE59" to="gneE56"/>
    <trip id="50" type="taxi" depart="50.00" departLane="best" departPos="random" departSpeed="max" from="gneE61" to="gneE60"/>
    <trip id="51" type="taxi" depart="51.00" departLane="best" departPos="random" departSpeed="max" from="gneE59" to="gneE60"/>
    <trip id="52" type="taxi" depart="52.00" departLane="best" departPos="random" departSpeed="max" from="gneE67" to="gneE64"/>
    <trip id="53" type="taxi" depart="53.00" departLane="best" departPos="random" departSpeed="max" from="gneE55" to="gneE54"/>
    <trip id="54" type="taxi" depart="54.00" departLane="best" departPos="random" departSpeed="max" from="gneE55" to="gneE66"/>
    <trip id="55" type="taxi" depart="55.00" departLane="best" departPos="random" departSpeed="max" from="gneE63" to="gneE62"/>
    <trip id="56" type="taxi" depart="56.00" departLane="best" departPos="random" departSpeed="max" from="gneE65" to="gneE52"/>
    <trip id="57" type="taxi" depart="57.00" departLane="best" departPos="random" departSpeed="max" from="gneE67" to="gneE62"/>
    <trip id="58" type="taxi" depart="58.00" departLane="best" departPos="random" departSpeed="max" from="gneE67" to="gneE64"/>
    <trip id="59" type="taxi" depart="59.00" departLane="best" departPos="random" departSpeed="max" from="gneE53" to="gneE52"/>
    <trip id="60" type="taxi" depart="60.00" departLane="best" departPos="random" departSpeed="max" from="gneE59" to="gneE54"/>
    <trip id="61" type="taxi" depart="61.00" departLane="best" departPos="random" departSpeed="max" from="gneE63" to="gneE62"/>
    <trip id="62" type="taxi" depart="62.00" departLane="best" departPos="random" departSpeed="max" from="gneE59" to="gneE54"/>
    <trip id="63" type="taxi" depart="63.00" departLane="best" departPos="random" departSpeed="max" from="gneE67" to="gneE66"/>
    <trip id="64" type="taxi" depart="64.00" departLane="best" departPos="random" departSpeed="max" from="gneE59" to="gneE56"/>
    <trip id="65" type="taxi" depart="65.00" departLane="best" departPos="random" departSpeed="max" from="gneE59" to="gneE62"/>
    <trip id="66" type="taxi" depart="66.00" departLane="best" departPos="random" departSpeed="max" from="gneE67" to="gneE64"/>
    <trip id="67" type="taxi" depart="67.00" departLane="best" departPos="random" departSpeed="max" from="gneE67" to="gneE66"/>
    <trip id="68" type="taxi" depart="68.00" departLane="best" departPos="random" departSpeed="max" from="gneE61" to="gneE56"/>
    <trip id="69" type="taxi" depart="69.00" departLane="best" departPos="random" departSpeed="max" from="gneE63" to="gneE66"/>
    <trip id="70" type="taxi" depart="70.00" departLane="best" departPos="random" departSpeed="max" from="gneE55" to="gneE52"/>
    <trip id="71" type="taxi" depart="71.00" departLane="best" departPos="random" departSpeed="max" from="gneE57" to="gneE60"/>
    <trip id="72" type="taxi" depart="72.00" departLane="best" departPos="random" departSpeed="max" from="gneE57" to="gneE52"/>
    <trip id="73" type="taxi" depart="73.00" departLane="best" departPos="random" departSpeed="max" from="gneE63" to="gneE60"/>
    <trip id="74" type="taxi" depart="74.00" departLane="best" departPos="random" departSpeed="max" from="gneE65" to="gneE66"/>
    <trip id="75" type="taxi" depart="75.00" departLane="best" departPos="random" departSpeed="max" from="gneE63" to="gneE64"/>
    <trip id="76" type="taxi" depart="76.00" departLane="best" departPos="random" departSpeed="max" from="gneE55" to="gneE56"/>
    <trip id="77" type="taxi" depart="77.00" departLane="best" departPos="random" departSpeed="max" from="gneE63" to="gneE58"/>
    <trip id="78" type="taxi" depart="78.00" departLane="best" departPos="random" departSpeed="max" from="gneE67" to="gneE62"/>
    <trip id="79" type="taxi" depart="79.00" departLane="best" departPos="random" departSpeed="max" from="gneE57" to="gneE60"/>
    <trip id="80" type="taxi" depart="80.00" departLane="best" departPos="random" departSpeed="max" from="gneE67" to="gneE62"/>
    <trip id="81" type="taxi" depart="81.00" departLane="best" departPos="random" departSpeed="max" from="gneE55" to="gneE52"/>
    <trip id="82" type="taxi" depart="82.00" departLane="best" departPos="random" departSpeed="max" from="gneE57" to="gneE60"/>
    <trip id="83" type="taxi" depart="83.00" departLane="best" departPos="random" departSpeed="max" from="gneE59" to="gneE60"/>
    <trip id="84" type="taxi" depart="84.00" departLane="best" departPos="random" departSpeed="max" from="gneE63" to="gneE58"/>
    <trip id="85" type="taxi" depart="85.00" departLane="best" departPos="random" departSpeed="max" from="gneE53" to="gneE56"/>
    <trip id="86" type="taxi" depart="86.00" departLane="best" departPos="random" departSpeed="max" from="gneE61" to="gneE64"/>
    <trip id="87" type="taxi" depart="87.00" departLane="best" departPos="random" departSpeed="max" from="gneE53" to="gneE52"/>
    <trip id="88" type="taxi" depart="88.00" departLane="best" departPos="random" departSpeed="max" from="gneE53" to="gneE66"/>
    <trip id="89" type="taxi" depart="89.00" departLane="best" departPos="random" departSpeed="max" from="gneE53" to="gneE64"/>
    <trip id="90" type="taxi" depart="90.00" departLane="best" departPos="random" departSpeed="max" from="gneE67" to="gneE54"/>
    <trip id="91" type="taxi" depart="91.00" departLane="best" departPos="random" departSpeed="max" from="gneE65" to="gneE52"/>
    <trip id="92" type="taxi" depart="92.00" departLane="best" departPos="random" departSpeed="max" from="gneE61" to="gneE62"/>
    <trip id="93" type="taxi" depart="93.00" departLane="best" departPos="random" departSpeed="max" from="gneE57" to="gneE58"/>
    <trip id="94" type="taxi" depart="94.00" departLane="best" departPos="random" departSpeed="max" from="gneE53" to="gneE66"/>
    <trip id="95" type="taxi" depart="95.00" departLane="best" departPos="random" departSpeed="max" from="gneE55" to="gneE58"/>
    <trip id="96" type="taxi" depart="96.00" departLane="best" departPos="random" departSpeed="max" from="gneE57" to="gneE56"/>
    <trip id="97" type="taxi" depart="97.00" departLane="best" departPos="random" departSpeed="max" from="gneE61" to="gneE62"/>
    <trip id="98" type="taxi" depart="98.00" departLane="best" departPos="random" departSpeed="max" from="gneE53" to="gneE52"/>
    <trip id="99" type="taxi" depart="99.00" departLane="best" departPos="random" departSpeed="max" from="gneE53" to="gneE54"/>
    <trip id="100" type="taxi" depart="100.00" departLane="best" departPos="random" departSpeed="max" from="gneE67" to="gneE62"/>
    <trip id="101" type="taxi" depart="101.00" departLane="best" departPos="random" departSpeed="max" from="gneE61" to="gneE64"/>
    <trip id="102" type="taxi" depart="102.00" departLane="best" departPos="random" departSpeed="max" from="gneE55" to="gneE54"/>
    <trip id="103" type="taxi" depart="103.00" departLane="best" departPos="random" departSpeed="max" from="gneE59" to="gneE58"/>
    <trip id="104" type="taxi" depart="104.00" departLane="best" departPos="random" departSpeed="max" from="gneE53" to="gneE52"/>
    <trip id="105" type="taxi" depart="105.00" departLane="best" departPos="random" departSpeed="max" from="gneE59" to="gneE62"/>
    <trip id="106" type="taxi" depart="106.00" departLane="best" departPos="random" departSpeed="max" from="gneE53" to="gneE54"/>
    <trip id="107" type="taxi" depart="107.00" departLane="best" departPos="random" departSpeed="max" from="gneE55" to="gneE52"/>
    <trip id="108" type="taxi" depart="108.00" departLane="best" departPos="random" departSpeed="max" from="gneE55" to="gneE52"/>
    <trip id="109" type="taxi" depart="109.00" departLane="best" departPos="random" departSpeed="max" from="gneE55" to="gneE58"/>
    <trip id="110" type="taxi" depart="110.00" departLane="best" departPos="random" departSpeed="max" from="gneE55" to="gneE52"/>
    <trip id="111" type="taxi" depart="111.00" departLane="best" departPos="random" departSpeed="max" from="gneE59" to="gneE60"/>
    <trip id="112" type="taxi" depart="112.00" departLane="best" departPos="random" departSpeed="max" from="gneE53" to="gneE56"/>
    <trip id="113" type="taxi" depart="113.00" departLane="best" departPos="random" departSpeed="max" from="gneE59" to="gneE54"/>
    <trip id="114" type="taxi" depart="114.00" departLane="best" departPos="random" departSpeed="max" from="gneE53" to="gneE52"/>
    <trip id="115" type="taxi" depart="115.00" departLane="best" departPos="random" departSpeed="max" from="gneE67" to="gneE54"/>
    <trip id="116" type="taxi" depart="116.00" departLane="best" departPos="random" departSpeed="max" from="gneE67" to="gneE54"/>
    <trip id="117" type="taxi" depart="117.00" departLane="best" departPos="random" departSpeed="max" from="gneE65" to="gneE66"/>
    <trip id="118" type="taxi" depart="118.00" departLane="best" departPos="random" departSpeed="max" from="gneE67" to="gneE54"/>
    <trip id="119" type="taxi" depart="119.00" departLane="best" departPos="random" departSpeed="max" from="gneE65" to="gneE62"/>
    <trip id="120" type="taxi" depart="120.00" departLane="best" departPos="random" departSpeed="max" from="gneE61" to="gneE64"/>
    <trip id="121" type="taxi" depart="121.00" departLane="best" departPos="random" departSpeed="max" from="gneE57" to="gneE52"/>
    <trip id="122" type="taxi" depart="122.00" departLane="best" departPos="random" departSpeed="max" from="gneE59" to="gneE60"/>
    <trip id="123" type="taxi" depart="123.00" departLane="best" departPos="random" departSpeed="max" from="gneE61" to="gneE64"/>
    <trip id="124" type="taxi" depart="124.00" departLane="best" departPos="random" departSpeed="max" from="gneE53" to="gneE66"/>
    <trip id="125" type="taxi" depart="125.00" departLane="best" departPos="random" departSpeed="max" from="gneE55" to="gneE52"/>
    <trip id="126" type="taxi" depart="126.00" departLane="best" departPos="random" departSpeed="max" from="gneE59" to="gneE56"/>
    <trip id="127" type="taxi" depart="127.00" departLane="best" departPos="random" departSpeed="max" from="gneE57" to="gneE58"/>
    <trip id="128" type="taxi" depart="128.00" departLane="best" departPos="random" departSpeed="max" from="gneE63" to="gneE62"/>
    <trip id="129" type="taxi" depart="129.00" departLane="best" departPos="random" departSpeed="max" from="gneE61" to="gneE56"/>
    <trip id="130" type="taxi" depart="130.00" departLane="best" departPos="random" departSpeed="max" from="gneE57" to="gneE60"/>
    <trip id="131" type="taxi" depart="131.00" departLane="best" departPos="random" departSpeed="max" from="gneE65" to="gneE60"/>
    <trip id="132" type="taxi" depart="132.00" departLane="best" departPos="random" departSpeed="max" from="gneE59" to="gneE54"/>
    <trip id="133" type="taxi" depart="133.00" departLane="best" departPos="random" departSpeed="max" from="gneE65" to="gneE66"/>
    <trip id="134" type="taxi" depart="134.00" departLane="best" departPos="random" departSpeed="max" from="gneE63" to="gneE62"/>
    <trip id="135" type="taxi" depart="135.00" departLane="best" departPos="random" departSpeed="max" from="gneE65" to="gneE66"/>
    <trip id="136" type="taxi" depart="136.00" departLane="best" departPos="random" departSpeed="max" from="gneE63" to="gneE66"/>
    <trip id="137" type="taxi" depart="137.00" departLane="best" departPos="random" departSpeed="max" from="gneE65" to="gneE52"/>
    <trip id="138" type="taxi" depart="138.00" departLane="best" departPos="random" departSpeed="max" from="gneE61" to="gneE60"/>
    <trip id="139" type="taxi" depart="139.00" departLane="best" departPos="random" departSpeed="max" from="gneE65" to="gneE52"/>
    <trip id="140" type="taxi" depart="140.00" departLane="best" departPos="random" departSpeed="max" from="gneE53" to="gneE54"/>
    <trip id="141" type="taxi" depart="141.00" departLane="best" departPos="random" departSpeed="max" from="gneE61" to="gneE60"/>
    <trip id="142" type="taxi" depart="142.00" departLane="best" departPos="random" departSpeed="max" from="gneE59" to="gneE54"/>
    <trip id="143" type="taxi" depart="143.00" departLane="best" departPos="random" departSpeed="max" from="gneE57" to="gneE54"/>
    <trip id="144" type="taxi" depart="144.00" departLane="best" departPos="random" departSpeed="max" from="gneE67" to="gneE54"/>
    <trip id="145" type="taxi" depart="145.00" departLane="best" departPos="random" departSpeed="max" from="gneE61" to="gneE64"/>
    <trip id="146" type="taxi" depart="146.00" departLane="best" departPos="random" departSpeed="max" from="gneE61" to="gneE58"/>
    <trip id="147" type="taxi" depart="147.00" departLane="best" departPos="random" departSpeed="max" from="gneE59" to="gneE54"/>
    <trip id="148" type="taxi" depart="148.00" departLane="best" departPos="random" departSpeed="max" from="gneE53" to="gneE52"/>
    <trip id="149" type="taxi" depart="149.00" departLane="best" departPos="random" departSpeed="max" from="gneE59" to="gneE60"/>
    <trip id="150" type="taxi" depart="150.00" departLane="best" departPos="random" departSpeed="max" from="gneE61" to="gneE56"/>
    <trip id="151" type="taxi" depart="151.00" departLane="best" departPos="random" departSpeed="max" from="gneE57" to="gneE56"/>
    <trip id="152" type="taxi" depart="152.00" departLane="best" departPos="random" departSpeed="max" from="gneE61" to="gneE56"/>
    <trip id="153" type="taxi" depart="153.00" departLane="best" departPos="random" departSpeed="max" from="gneE67" to="gneE54"/>
    <trip id="154" type="taxi" depart="154.00" departLane="best" departPos="random" departSpeed="max" from="gneE61" to="gneE62"/>
    <trip id="155" type="taxi" depart="155.00" departLane="best" departPos="random" departSpeed="max" from="gneE63" to="gneE64"/>
    <trip id="156" type="taxi" depart="156.00" departLane="best" departPos="random" departSpeed="max" from="gneE53" to="gneE64"/>
    <trip id="157" type="taxi" depart="157.00" departLane="best" departPos="random" departSpeed="max" from="gneE67" to="gneE52"/>
    <trip id="158" type="taxi" depart="158.00" departLane="best" departPos="random" departSpeed="max" from="gneE61" to="gneE62"/>
    <trip id="159" type="taxi" depart="159.00" departLane="best" departPos="random" departSpeed="max" from="gneE53" to="gneE52"/>
    <trip id="160" type="taxi" depart="160.00" departLane="best" departPos="random" departSpeed="max" from="gneE55" to="gneE66"/>
    <trip id="161" type="taxi" depart="161.00" departLane="best" departPos="random" departSpeed="max" from="gneE63" to="gneE66"/>
    <trip id="162" type="taxi" depart="162.00" departLane="best" departPos="random" departSpeed="max" from="gneE55" to="gneE54"/>
    <trip id="163" type="taxi" depart="163.00" departLane="best" departPos="random" departSpeed="max" from="gneE59" to="gneE58"/>
    <trip id="164" type="taxi" depart="164.00" departLane="best" departPos="random" departSpeed="max" from="gneE63" to="gneE58"/>
    <trip id="165" type="taxi" depart="165.00" departLane="best" departPos="random" departSpeed="max" from="gneE63" to="gneE66"/>
    <trip id="166" type="taxi" depart="166.00" departLane="best" departPos="random" departSpeed="max" from="gneE65" to="gneE64"/>
    <trip id="167" type="taxi" depart="167.00" departLane="best" departPos="random" departSpeed="max" from="gneE63" to="gneE58"/>
    <trip id="168" type="taxi" depart="168.00" departLane="best" departPos="random" departSpeed="max" from="gneE65" to="gneE52"/>
    <trip id="169" type="taxi" depart="169.00" departLane="best" departPos="random" departSpeed="max" from="gneE63" to="gneE58"/>
    <trip id="170" type="taxi" depart="170.00" departLane="best" departPos="random" departSpeed="max" from="gneE61" to="gneE60"/>
    <trip id="171" type="taxi" depart="171.00" departLane="best" departPos="random" departSpeed="max" from="gneE57" to="gneE54"/>
    <trip id="172" type="taxi" depart="172.00" departLane="best" departPos="random" departSpeed="max" from="gneE67" to="gneE64"/>
    <trip id="173" type="taxi" depart="173.00" departLane="best" departPos="random" departSpeed="max" from="gneE61" to="gneE64"/>
    <trip id="174" type="taxi" depart="174.00" departLane="best" departPos="random" departSpeed="max" from="gneE55" to="gneE56"/>
    <trip id="175" type="taxi" depart="175.00" departLane="best" departPos="random" departSpeed="max" from="gneE67" to="gneE62"/>
    <trip id="176" type="taxi" depart="176.00" departLane="best" departPos="random" departSpeed="max" from="gneE57" to="gneE60"/>
    <trip id="177" type="taxi" depart="177.00" departLane="best" departPos="random" departSpeed="max" from="gneE55" to="gneE54"/>
    <trip id="178" type="taxi" depart="178.00" departLane="best" departPos="random" departSpeed="max" from="gneE53" to="gneE52"/>
    <trip id="179" type="taxi" depart="179.00" departLane="best" departPos="random" departSpeed="max" from="gneE67" to="gneE52"/>
    <trip id="180" type="taxi" depart="180.00" departLane="best" departPos="random" departSpeed="max" from="gneE59" to="gneE56"/>
    <trip id="181" type="taxi" depart="181.00" departLane="best" departPos="random" departSpeed="max" from="gneE63" to="gneE58"/>
    <trip id="182" type="taxi" depart="182.00" departLane="best" departPos="random" departSpeed="max" from="gneE63" to="gneE64"/>
    <trip id="183" type="taxi" depart="183.00" departLane="best" departPos="random" departSpeed="max" from="gneE63" to="gneE66"/>
    <trip id="184" type="taxi" depart="184.00" departLane="best" departPos="random" departSpeed="max" from="gneE57" to="gneE58"/>
    <trip id="185" type="taxi" depart="185.00" departLane="best" departPos="random" departSpeed="max" from="gneE63" to="gneE58"/>
    <trip id="186" type="taxi" depart="186.00" departLane="best" departPos="random" departSpeed="max" from="gneE53" to="gneE66"/>
    <trip id="187" type="taxi" depart="187.00" departLane="best" departPos="random" departSpeed="max" from="gneE57" to="gneE58"/>
    <trip id="188" type="taxi" depart="188.00" departLane="best" departPos="random" departSpeed="max" from="gneE55" to="gneE56"/>
    <trip id="189" type="taxi" depart="189.00" departLane="best" departPos="random" departSpeed="max" from="gneE55" to="gneE52"/>
    <trip id="190" type="taxi" depart="190.00" departLane="best" departPos="random" departSpeed="max" from="gneE59" to="gneE56"/>
    <trip id="191" type="taxi" depart="191.00" departLane="best" departPos="random" departSpeed="max" from="gneE53" to="gneE64"/>
    <trip id="192" type="taxi" depart="192.00" departLane="best" departPos="random" departSpeed="max" from="gneE67" to="gneE66"/>
    <trip id="193" type="taxi" depart="193.00" departLane="best" departPos="random" departSpeed="max" from="gneE55" to="gneE52"/>
    <trip id="194" type="taxi" depart="194.00" departLane="best" departPos="random" departSpeed="max" from="gneE61" to="gneE62"/>
    <trip id="195" type="taxi" depart="195.00" departLane="best" departPos="random" departSpeed="max" from="gneE59" to="gneE62"/>
    <trip id="196" type="taxi" depart="196.00" departLane="best" departPos="random" departSpeed="max" from="gneE59" to="gneE58"/>
    <trip id="197" type="taxi" depart="197.00" departLane="best" departPos="random" departSpeed="max" from="gneE63" to="gneE60"/>
    <trip id="198" type="taxi" depart="198.00" departLane="best" departPos="random" departSpeed="max" from="gneE61" to="gneE56"/>
    <trip id="199" type="taxi" depart="199.00" departLane="best" departPos="random" departSpeed="max" from="gneE57" to="gneE54"/>
    <trip id="200" type="taxi" depart="200.00" departLane="best" departPos="random" departSpeed="max" from="gneE65" to="gneE60"/>
    <trip id="201" type="taxi" depart="201.00" departLane="best" departPos="random" departSpeed="max" from="gneE55" to="gneE56"/>
    <trip id="202" type="taxi" depart="202.00" departLane="best" departPos="random" departSpeed="max" from="gneE53" to="gneE56"/>
    <trip id="203" type="taxi" depart="203.00" departLane="best" departPos="random" departSpeed="max" from="gneE53" to="gneE64"/>
    <trip id="204" type="taxi" depart="204.00" departLane="best" departPos="random" departSpeed="max" from="gneE65" to="gneE66"/>
    <trip id="205" type="taxi" depart="205.00" departLane="best" departPos="random" departSpeed="max" from="gneE59" to="gneE60"/>
    <trip id="206" type="taxi" depart="206.00" departLane="best" departPos="random" departSpeed="max" from="gneE59" to="gneE58"/>
    <trip id="207" type="taxi" depart="207.00" departLane="best" departPos="random" departSpeed="max" from="gneE61" to="gneE56"/>
    <trip id="208" type="taxi" depart="208.00" departLane="best" departPos="random" departSpeed="max" from="gneE53" to="gneE54"/>
    <trip id="209" type="taxi" depart="209.00" departLane="best" departPos="random" departSpeed="max" from="gneE61" to="gneE60"/>
    <trip id="210" type="taxi" depart="210.00" departLane="best" departPos="random" departSpeed="max" from="gneE57" to="gneE54"/>
    <trip id="211" type="taxi" depart="211.00" departLane="best" departPos="random" departSpeed="max" from="gneE53" to="gneE56"/>
    <trip id="212" type="taxi" depart="212.00" departLane="best" departPos="random" departSpeed="max" from="gneE61" to="gneE56"/>
    <trip id="213" type="taxi" depart="213.00" departLane="best" departPos="random" departSpeed="max" from="gneE61" to="gneE58"/>
    <trip id="214" type="taxi" depart="214.00" departLane="best" departPos="random" departSpeed="max" from="gneE61" to="gneE58"/>
    <trip id="215" type="taxi" depart="215.00" departLane="best" departPos="random" departSpeed="max" from="gneE67" to="gneE62"/>
    <trip id="216" type="taxi" depart="216.00" departLane="best" departPos="random" departSpeed="max" from="gneE61" to="gneE56"/>
    <trip id="217" type="taxi" depart="217.00" departLane="best" departPos="random" departSpeed="max" from="gneE53" to="gneE52"/>
    <trip id="218" type="taxi" depart="218.00" departLane="best" departPos="random" departSpeed="max" from="gneE59" to="gneE54"/>
    <trip id="219" type="taxi" depart="219.00" departLane="best" departPos="random" departSpeed="max" from="gneE65" to="gneE60"/>
    <trip id="220" type="taxi" depart="220.00" departLane="best" departPos="random" departSpeed="max" from="gneE53" to="gneE66"/>
    <trip id="221" type="taxi" depart="221.00" departLane="best" departPos="random" departSpeed="max" from="gneE53" to="gneE54"/>
    <trip id="222" type="taxi" depart="222.00" departLane="best" departPos="random" departSpeed="max" from="gneE67" to="gneE52"/>
    <trip id="223" type="taxi" depart="223.00" departLane="best" departPos="random" departSpeed="max" from="gneE61" to="gneE60"/>
    <trip id="224" type="taxi" depart="224.00" departLane="best" departPos="random" departSpeed="max" from="gneE57" to="gneE58"/>