<?xml version="1.0" encoding="UTF-8"?>

<!-- generated on 04/04/21 21:32:41 by Eclipse SUMO duarouter Version 1.8.0
<configuration xmlns:xsi="http://www.w3.org/2001/XMLSchema-instance" xsi:noNamespaceSchemaLocation="http://sumo.dlr.de/xsd/duarouterConfiguration.xsd">

    <input>
        <net-file value="./36-way/36-way.net.xml"/>
        <additional-files value="vTypeDistributions.add.xml"/>
        <route-files value="trips.trips.xml"/>
    </input>

    <output>
        <output-file value="./36-way/route/Period_1.rou.xml"/>
        <alternatives-output value="./36-way/route/Period_1.rou.alt.xml"/>
    </output>

    <time>
        <begin value="0"/>
        <end value="10800.0"/>
    </time>

    <report>
        <no-warnings value="true"/>
        <ignore-errors value="true"/>
        <no-step-log value="true"/>
    </report>

</configuration>
-->

<routes xmlns:xsi="http://www.w3.org/2001/XMLSchema-instance" xsi:noNamespaceSchemaLocation="http://sumo.dlr.de/xsd/routes_file.xsd">
    <vType id="vehDist4" length="4.70" minGap="1.30" maxSpeed="15.27" vClass="passenger" accel="1.737" sigma="0.574"/>
    <vehicle id="0" type="vehDist4" depart="0.00" departLane="random" departPos="random" departSpeed="random">
        <route edges="InB_EM_1 InB_EM_2 Mid_E_2 Mid_W_2 Mid_WS_2 OutB_SW_2 OutB_SW_1"/>
    </vehicle>
    <vType id="vehDist3" length="4.70" minGap="1.30" maxSpeed="33.08" vClass="passenger" accel="2.593" sigma="0.407"/>
    <vehicle id="1" type="vehDist3" depart="0.60" departLane="random" departPos="random" departSpeed="random">
        <route edges="InB_WM_1 InB_WM_2 Mid_W_1 Mid_E_1 Mid_ES_2 OutB_SE_2 OutB_SE_1"/>
    </vehicle>
    <vType id="vehDist0" length="4.70" minGap="1.30" maxSpeed="31.50" vClass="passenger" accel="1.801" sigma="0.549"/>
    <vehicle id="2" type="vehDist0" depart="1.20" departLane="random" departPos="random" departSpeed="random">
        <route edges="InB_WM_1 InB_WM_2 Mid_W_1 Mid_E_1 Mid_EN_1 OutB_EN_2 OutB_EN_1"/>
    </vehicle>
    <vType id="vehDist2" length="4.70" minGap="1.30" maxSpeed="19.82" vClass="passenger" accel="2.695" sigma="0.266"/>
    <vehicle id="3" type="vehDist2" depart="1.80" departLane="random" departPos="random" departSpeed="random">
        <route edges="InB_WS_1 InB_WS_2 Mid_SW_1 Mid_S_1 Mid_E_1 OutB_EM_2 OutB_EM_1"/>
    </vehicle>
    <vehicle id="4" type="vehDist2" depart="2.40" departLane="random" departPos="random" departSpeed="random">
        <route edges="InB_NW_1 InB_NW_2 Mid_WN_2 Mid_WS_2 OutB_SW_2 OutB_SW_1"/>
    </vehicle>
    <vehicle id="5" type="vehDist0" depart="3.00" departLane="random" departPos="random" departSpeed="random">
        <route edges="InB_WN_1 InB_WN_2 Mid_WN_2 Mid_W_1 Mid_E_1 Mid_ES_2 OutB_SE_2 OutB_SE_1"/>
    </vehicle>
    <vehicle id="6" type="vehDist3" depart="3.60" departLane="random" departPos="random" departSpeed="random">
        <route edges="InB_EN_1 InB_EN_2 Mid_EN_2 Mid_E_2 Mid_W_2 OutB_WM_2 OutB_WM_1"/>
    </vehicle>
    <vType id="vehDist1" length="4.70" minGap="1.30" maxSpeed="26.40" vClass="passenger" accel="1.610" sigma="0.472"/>
    <vehicle id="7" type="vehDist1" depart="4.20" departLane="random" departPos="random" departSpeed="random">
        <route edges="InB_SM_1 InB_SM_2 Mid_S_1 Mid_N_1 OutB_NM_2 OutB_NM_1"/>
    </vehicle>
    <vehicle id="8" type="vehDist2" depart="4.80" departLane="random" departPos="random" departSpeed="random">
        <route edges="InB_WM_1 InB_WM_2 Mid_W_1 Mid_E_1 OutB_EM_2 OutB_EM_1"/>
    </vehicle>
    <vehicle id="9" type="vehDist3" depart="5.40" departLane="random" departPos="random" departSpeed="random">
        <route edges="InB_ES_1 InB_ES_2 Mid_ES_1 Mid_EN_1 OutB_NE_2 OutB_NE_1"/>
    </vehicle>
    <vehicle id="10" type="vehDist0" depart="6.00" departLane="random" departPos="random" departSpeed="random">
        <route edges="InB_SE_1 InB_SE_2 Mid_ES_1 Mid_EN_1 OutB_NE_2 OutB_NE_1"/>
    </vehicle>
    <vehicle id="11" type="vehDist3" depart="6.60" departLane="random" departPos="random" departSpeed="random">
        <route edges="InB_EM_1 InB_EM_2 Mid_E_2 Mid_W_2 Mid_WN_1 OutB_NW_2 OutB_NW_1"/>
    </vehicle>
    <vehicle id="12" type="vehDist2" depart="7.20" departLane="random" departPos="random" departSpeed="random">
        <route edges="InB_SW_1 InB_SW_2 Mid_WS_1 Mid_W_1 Mid_E_1 Mid_EN_1 OutB_EN_2 OutB_EN_1"/>
    </vehicle>
    <vehicle id="13" type="vehDist2" depart="7.80" departLane="random" departPos="random" departSpeed="random">
        <route edges="InB_ES_1 InB_ES_2 Mid_ES_1 Mid_E_2 Mid_N_1 Mid_NW_2 OutB_WN_2 OutB_WN_1"/>
    </vehicle>
    <vehicle id="14" type="vehDist2" depart="8.40" departLane="random" departPos="random" departSpeed="random">
        <route edges="InB_SM_1 InB_SM_2 Mid_S_1 Mid_N_1 Mid_NW_2 OutB_NW_2 OutB_NW_1"/>
    </vehicle>
    <vehicle id="15" type="vehDist1" depart="9.00" departLane="random" departPos="random" departSpeed="random">
        <route edges="InB_EN_1 InB_EN_2 Mid_EN_2 Mid_ES_2 OutB_SE_2 OutB_SE_1"/>
    </vehicle>
    <vehicle id="16" type="vehDist0" depart="9.60" departLane="random" departPos="random" departSpeed="random">
        <route edges="InB_SM_1 InB_SM_2 Mid_S_1 Mid_N_1 OutB_NM_2 OutB_NM_1"/>
    </vehicle>
    <vehicle id="17" type="vehDist4" depart="10.20" departLane="random" departPos="random" departSpeed="random">
        <route edges="InB_EN_1 InB_EN_2 Mid_EN_2 Mid_E_2 Mid_W_2 Mid_WS_2 OutB_SW_2 OutB_SW_1"/>
    </vehicle>
    <vehicle id="18" type="vehDist1" depart="10.80" departLane="random" departPos="random" departSpeed="random">
        <route edges="InB_NE_1 InB_NE_2 Mid_EN_2 Mid_E_2 Mid_W_2 Mid_WS_2 OutB_SW_2 OutB_SW_1"/>
    </vehicle>
    <vehicle id="19" type="vehDist3" depart="11.40" departLane="random" departPos="random" departSpeed="random">
        <route edges="InB_WN_1 InB_WN_2 Mid_NW_1 Mid_NE_1 OutB_EN_2 OutB_EN_1"/>
    </vehicle>
    <vehicle id="20" type="vehDist0" depart="12.00" departLane="random" departPos="random" departSpeed="random">
        <route edges="InB_NE_1 InB_NE_2 Mid_EN_2 Mid_E_2 Mid_W_2 OutB_WM_2 OutB_WM_1"/>
    </vehicle>
    <vehicle id="21" type="vehDist2" depart="12.60" departLane="random" departPos="random" departSpeed="random">
        <route edges="InB_EN_1 InB_EN_2 Mid_NE_2 Mid_NW_2 OutB_WN_2 OutB_WN_1"/>
    </vehicle>
    <vehicle id="22" type="vehDist1" depart="13.20" departLane="random" departPos="random" departSpeed="random">
        <route edges="InB_EN_1 InB_EN_2 Mid_EN_2 Mid_ES_2 OutB_SE_2 OutB_SE_1"/>
    </vehicle>
    <vehicle id="23" type="vehDist3" depart="13.80" departLane="random" departPos="random" departSpeed="random">
        <route edges="InB_WN_1 InB_WN_2 Mid_WN_2 Mid_WS_2 OutB_SW_2 OutB_SW_1"/>
    </vehicle>
    <vehicle id="24" type="vehDist4" depart="14.40" departLane="random" departPos="random" departSpeed="random">
        <route edges="InB_NW_1 InB_NW_2 Mid_NW_1 Mid_NE_1 OutB_EN_2 OutB_EN_1"/>
    </vehicle>
    <vehicle id="25" type="vehDist4" depart="15.00" departLane="random" departPos="random" departSpeed="random">
        <route edges="InB_WM_1 InB_WM_2 Mid_W_1 Mid_E_1 Mid_ES_2 OutB_SE_2 OutB_SE_1"/>
    </vehicle>
    <vehicle id="26" type="vehDist4" depart="15.60" departLane="random" departPos="random" departSpeed="random">
        <route edges="InB_WM_1 InB_WM_2 Mid_W_1 Mid_E_1 OutB_EM_2 OutB_EM_1"/>
    </vehicle>
    <vehicle id="27" type="vehDist1" depart="16.20" departLane="random" departPos="random" departSpeed="random">
        <route edges="InB_SM_1 InB_SM_2 Mid_S_1 Mid_E_1 Mid_EN_1 OutB_NE_2 OutB_NE_1"/>
    </vehicle>
    <vehicle id="28" type="vehDist2" depart="16.80" departLane="random" departPos="random" departSpeed="random">
        <route edges="InB_WN_1 InB_WN_2 Mid_NW_1 Mid_N_2 Mid_S_2 OutB_SM_2 OutB_SM_1"/>
    </vehicle>
    <vehicle id="29" type="vehDist1" depart="17.40" departLane="random" departPos="random" departSpeed="random">
        <route edges="InB_EM_1 InB_EM_2 Mid_E_2 Mid_W_2 Mid_WS_2 OutB_WS_2 OutB_WS_1"/>
    </vehicle>
    <vehicle id="30" type="vehDist0" depart="18.00" departLane="random" departPos="random" departSpeed="random">
        <route edges="InB_WN_1 InB_WN_2 Mid_WN_2 Mid_WS_2 OutB_SW_2 OutB_SW_1"/>
    </vehicle>
    <vehicle id="31" type="vehDist1" depart="18.60" departLane="random" departPos="random" departSpeed="random">
        <route edges="InB_NE_1 InB_NE_2 Mid_EN_2 Mid_E_2 Mid_W_2 Mid_WS_2 OutB_WS_2 OutB_WS_1"/>
    </vehicle>
    <vehicle id="32" type="vehDist3" depart="19.20" departLane="random" departPos="random" departSpeed="random">
        <route edges="InB_WS_1 InB_WS_2 Mid_WS_1 Mid_WN_1 OutB_NW_2 OutB_NW_1"/>
    </vehicle>
    <vehicle id="33" type="vehDist0" depart="19.80" departLane="random" departPos="random" departSpeed="random">
        <route edges="InB_WN_1 InB_WN_2 Mid_WN_2 Mid_W_1 Mid_E_1 OutB_EM_2 OutB_EM_1"/>
    </vehicle>
    <vehicle id="34" type="vehDist4" depart="20.40" departLane="random" departPos="random" departSpeed="random">
        <route edges="InB_SM_1 InB_SM_2 Mid_S_1 Mid_E_1 Mid_EN_1 OutB_EN_2 OutB_EN_1"/>
    </vehicle>
    <vehicle id="35" type="vehDist0" depart="21.00" departLane="random" departPos="random" departSpeed="random">
        <route edges="InB_ES_1 InB_ES_2 Mid_SE_2 Mid_SW_2 OutB_WS_2 OutB_WS_1"/>
    </vehicle>
    <vehicle id="36" type="vehDist3" depart="21.60" departLane="random" departPos="random" departSpeed="random">
        <route edges="InB_SE_1 InB_SE_2 Mid_ES_1 Mid_E_2 Mid_N_1 Mid_NW_2 OutB_WN_2 OutB_WN_1"/>
    </vehicle>
    <vehicle id="37" type="vehDist1" depart="22.20" departLane="random" departPos="random" departSpeed="random">
        <route edges="InB_NE_1 InB_NE_2 Mid_EN_2 Mid_E_2 Mid_W_2 OutB_WM_2 OutB_WM_1"/>
    </vehicle>
    <vehicle id="38" type="vehDist0" depart="22.80" departLane="random" departPos="random" departSpeed="random">
        <route edges="InB_SE_1 InB_SE_2 Mid_ES_1 Mid_E_2 Mid_N_1 Mid_NW_2 OutB_WN_2 OutB_WN_1"/>
    </vehicle>
    <vehicle id="39" type="vehDist0" depart="23.40" departLane="random" departPos="random" departSpeed="random">
        <route edges="InB_SE_1 InB_SE_2 Mid_SE_2 Mid_SW_2 OutB_WS_2 OutB_WS_1"/>
    </vehicle>
    <vehicle id="40" type="vehDist2" depart="24.00" departLane="random" departPos="random" departSpeed="random">
        <route edges="InB_EN_1 InB_EN_2 Mid_NE_2 Mid_NW_2 OutB_NW_2 OutB_NW_1"/>
    </vehicle>
    <vehicle id="41" type="vehDist4" depart="24.60" departLane="random" departPos="random" departSpeed="random">
        <route edges="InB_SW_1 InB_SW_2 Mid_WS_1 Mid_WN_1 Mid_NW_1 OutB_NM_2 OutB_NM_1"/>
    </vehicle>
    <vehicle id="42" type="vehDist1" depart="25.20" departLane="random" departPos="random" departSpeed="random">
        <route edges="InB_WS_1 InB_WS_2 Mid_WS_1 Mid_WN_1 OutB_NW_2 OutB_NW_1"/>
    </vehicle>
    <vehicle id="43" type="vehDist1" depart="25.80" departLane="random" departPos="random" departSpeed="random">
        <route edges="InB_NE_1 InB_NE_2 Mid_EN_2 Mid_E_2 Mid_W_2 OutB_WM_2 OutB_WM_1"/>
    </vehicle>
    <vehicle id="44" type="vehDist0" depart="26.40" departLane="random" departPos="random" departSpeed="random">
        <route edges="InB_NM_1 InB_NM_2 Mid_N_2 Mid_S_2 Mid_SW_2 OutB_SW_2 OutB_SW_1"/>
    </vehicle>
    <vehicle id="45" type="vehDist2" depart="27.00" departLane="random" departPos="random" departSpeed="random">
        <route edges="InB_SE_1 InB_SE_2 Mid_ES_1 Mid_E_2 Mid_W_2 OutB_WM_2 OutB_WM_1"/>
    </vehicle>
    <vehicle id="46" type="vehDist1" depart="27.60" departLane="random" departPos="random" departSpeed="random">
        <route edges="InB_NE_1 InB_NE_2 Mid_EN_2 Mid_E_2 Mid_W_2 Mid_WS_2 OutB_SW_2 OutB_SW_1"/>
    </vehicle>
    <vehicle id="47" type="vehDist4" depart="28.20" departLane="random" departPos="random" departSpeed="random">
        <route edges="InB_WS_1 InB_WS_2 Mid_SW_1 Mid_S_1 Mid_N_1 OutB_NM_2 OutB_NM_1"/>
    </vehicle>
    <vehicle id="48" type="vehDist0" depart="28.80" departLane="random" departPos="random" departSpeed="random">
        <route edges="InB_WN_1 InB_WN_2 Mid_WN_2 Mid_W_1 Mid_E_1 Mid_ES_2 OutB_SE_2 OutB_SE_1"/>
    </vehicle>
    <vehicle id="49" type="vehDist3" depart="29.40" departLane="random" departPos="random" departSpeed="random">
        <route edges="InB_NW_1 InB_NW_2 Mid_WN_2 Mid_W_1 Mid_E_1 OutB_EM_2 OutB_EM_1"/>
    </vehicle>
    <vehicle id="50" type="vehDist3" depart="30.00" departLane="random" departPos="random" departSpeed="random">
        <route edges="InB_EN_1 InB_EN_2 Mid_EN_2 Mid_E_2 Mid_W_2 Mid_WS_2 OutB_WS_2 OutB_WS_1"/>
    </vehicle>
    <vehicle id="51" type="vehDist2" depart="30.60" departLane="random" departPos="random" departSpeed="random">
        <route edges="InB_WS_1 InB_WS_2 Mid_WS_1 Mid_WN_1 OutB_NW_2 OutB_NW_1"/>
    </vehicle>
    <vehicle id="52" type="vehDist3" depart="31.20" departLane="random" departPos="random" departSpeed="random">
        <route edges="InB_SM_1 InB_SM_2 Mid_S_1 Mid_N_1 Mid_NW_2 OutB_NW_2 OutB_NW_1"/>
    </vehicle>
    <vehicle id="53" type="vehDist4" depart="31.80" departLane="random" departPos="random" departSpeed="random">
        <route edges="InB_WM_1 InB_WM_2 Mid_W_1 Mid_E_1 OutB_EM_2 OutB_EM_1"/>
    </vehicle>
    <vehicle id="54" type="vehDist4" depart="32.40" departLane="random" departPos="random" departSpeed="random">
        <route edges="InB_NE_1 InB_NE_2 Mid_EN_2 Mid_ES_2 OutB_ES_2 OutB_ES_1"/>
    </vehicle>
    <vehicle id="55" type="vehDist1" depart="33.00" departLane="random" departPos="random" departSpeed="random">
        <route edges="InB_SE_1 InB_SE_2 Mid_ES_1 Mid_E_2 Mid_N_1 Mid_NW_2 OutB_WN_2 OutB_WN_1"/>
    </vehicle>
    <vehicle id="56" type="vehDist2" depart="33.60" departLane="random" departPos="random" departSpeed="random">
        <route edges="InB_ES_1 InB_ES_2 Mid_ES_1 Mid_EN_1 OutB_NE_2 OutB_NE_1"/>
    </vehicle>
    <vehicle id="57" type="vehDist2" depart="34.20" departLane="random" departPos="random" departSpeed="random">
        <route edges="InB_EN_1 InB_EN_2 Mid_NE_2 Mid_NW_2 OutB_NW_2 OutB_NW_1"/>
    </vehicle>
    <vehicle id="58" type="vehDist0" depart="34.80" departLane="random" departPos="random" departSpeed="random">
        <route edges="InB_WM_1 InB_WM_2 Mid_W_1 Mid_E_1 Mid_EN_1 OutB_NE_2 OutB_NE_1"/>
    </vehicle>
    <vehicle id="59" type="vehDist4" depart="35.40" departLane="random" departPos="random" departSpeed="random">
        <route edges="InB_EM_1 InB_EM_2 Mid_E_2 Mid_W_2 OutB_WM_2 OutB_WM_1"/>
    </vehicle>
    <vehicle id="60" type="vehDist0" depart="36.00" departLane="random" departPos="random" departSpeed="random">
        <route edges="InB_WN_1 InB_WN_2 Mid_WN_2 Mid_W_1 Mid_E_1 OutB_EM_2 OutB_EM_1"/>
    </vehicle>
    <vehicle id="61" type="vehDist3" depart="36.60" departLane="random" departPos="random" departSpeed="random">
        <route edges="InB_WN_1 InB_WN_2 Mid_NW_1 Mid_NE_1 OutB_NE_2 OutB_NE_1"/>
    </vehicle>
    <vehicle id="62" type="vehDist0" depart="37.20" departLane="random" departPos="random" departSpeed="random">
        <route edges="InB_ES_1 InB_ES_2 Mid_ES_1 Mid_E_2 Mid_W_2 OutB_WM_2 OutB_WM_1"/>
    </vehicle>
    <vehicle id="63" type="vehDist0" depart="37.80" departLane="random" departPos="random" departSpeed="random">
        <route edges="InB_NE_1 InB_NE_2 Mid_NE_2 Mid_NW_2 OutB_WN_2 OutB_WN_1"/>
    </vehicle>
    <vehicle id="64" type="vehDist1" depart="38.40" departLane="random" departPos="random" departSpeed="random">
        <route edges="InB_EM_1 InB_EM_2 Mid_E_2 Mid_W_2 Mid_WN_1 OutB_WN_2 OutB_WN_1"/>
    </vehicle>
    <vehicle id="65" type="vehDist2" depart="39.00" departLane="random" departPos="random" departSpeed="random">
        <route edges="InB_EN_1 InB_EN_2 Mid_EN_2 Mid_E_2 Mid_W_2 Mid_WS_2 OutB_SW_2 OutB_SW_1"/>
    </vehicle>
    <vehicle id="66" type="vehDist4" depart="39.60" departLane="random" departPos="random" departSpeed="random">
        <route edges="InB_SM_1 InB_SM_2 Mid_S_1 Mid_N_1 Mid_NW_2 OutB_NW_2 OutB_NW_1"/>
    </vehicle>
    <vehicle id="67" type="vehDist0" depart="40.20" departLane="random" departPos="random" departSpeed="random">
        <route edges="InB_NE_1 InB_NE_2 Mid_EN_2 Mid_E_2 Mid_W_2 Mid_WS_2 OutB_SW_2 OutB_SW_1"/>
    </vehicle>
    <vehicle id="68" type="vehDist0" depart="40.80" departLane="random" departPos="random" departSpeed="random">
        <route edges="InB_WM_1 InB_WM_2 Mid_W_1 Mid_E_1 OutB_EM_2 OutB_EM_1"/>
    </vehicle>
    <vehicle id="69" type="vehDist4" depart="41.40" departLane="random" departPos="random" departSpeed="random">
        <route edges="InB_ES_1 InB_ES_2 Mid_ES_1 Mid_EN_1 OutB_NE_2 OutB_NE_1"/>
    </vehicle>
    <vehicle id="70" type="vehDist1" depart="42.00" departLane="random" departPos="random" departSpeed="random">
        <route edges="InB_SE_1 InB_SE_2 Mid_ES_1 Mid_EN_1 OutB_EN_2 OutB_EN_1"/>
    </vehicle>
    <vehicle id="71" type="vehDist1" depart="42.60" departLane="random" departPos="random" departSpeed="random">
        <route edges="InB_EN_1 InB_EN_2 Mid_EN_2 Mid_E_2 Mid_W_2 Mid_WS_2 OutB_WS_2 OutB_WS_1"/>
    </vehicle>
    <vehicle id="72" type="vehDist0" depart="43.20" departLane="random" departPos="random" departSpeed="random">
        <route edges="InB_NM_1 InB_NM_2 Mid_N_2 Mid_S_2 Mid_SW_2 OutB_WS_2 OutB_WS_1"/>
    </vehicle>
    <vehicle id="73" type="vehDist2" depart="43.80" departLane="random" departPos="random" departSpeed="random">
        <route edges="InB_ES_1 InB_ES_2 Mid_ES_1 Mid_E_2 Mid_W_2 OutB_WM_2 OutB_WM_1"/>
    </vehicle>
    <vehicle id="74" type="vehDist1" depart="44.40" departLane="random" departPos="random" departSpeed="random">
        <route edges="InB_WM_1 InB_WM_2 Mid_W_1 Mid_E_1 Mid_EN_1 OutB_NE_2 OutB_NE_1"/>
    </vehicle>
    <vehicle id="75" type="vehDist0" depart="45.00" departLane="random" departPos="random" departSpeed="random">
        <route edges="InB_EM_1 InB_EM_2 Mid_E_2 Mid_W_2 OutB_WM_2 OutB_WM_1"/>
    </vehicle>
    <vehicle id="76" type="vehDist0" depart="45.60" departLane="random" departPos="random" departSpeed="random">
        <route edges="InB_WM_1 InB_WM_2 Mid_W_1 Mid_E_1 Mid_EN_1 OutB_EN_2 OutB_EN_1"/>
    </vehicle>
    <vehicle id="77" type="vehDist0" depart="46.20" departLane="random" departPos="random" departSpeed="random">
        <route edges="InB_ES_1 InB_ES_2 Mid_SE_2 Mid_SW_2 OutB_WS_2 OutB_WS_1"/>
    </vehicle>
    <vehicle id="78" type="vehDist3" depart="46.80" departLane="random" departPos="random" departSpeed="random">
        <route edges="InB_EN_1 InB_EN_2 Mid_EN_2 Mid_E_2 Mid_W_2 Mid_WS_2 OutB_SW_2 OutB_SW_1"/>
    </vehicle>
    <vehicle id="79" type="vehDist1" depart="47.40" departLane="random" departPos="random" departSpeed="random">
        <route edges="InB_WN_1 InB_WN_2 Mid_WN_2 Mid_W_1 Mid_E_1 Mid_ES_2 OutB_SE_2 OutB_SE_1"/>
    </vehicle>
    <vehicle id="80" type="vehDist1" depart="48.00" departLane="random" departPos="random" departSpeed="random">
        <route edges="InB_WS_1 InB_WS_2 Mid_SW_1 Mid_S_1 Mid_E_1 Mid_EN_1 OutB_NE_2 OutB_NE_1"/>
    </vehicle>
    <vehicle id="81" type="vehDist1" depart="48.60" departLane="random" departPos="random" departSpeed="random">
        <route edges="InB_ES_1 InB_ES_2 Mid_ES_1 Mid_E_2 Mid_N_1 Mid_NW_2 OutB_WN_2 OutB_WN_1"/>
    </vehicle>
    <vehicle id="82" type="vehDist3" depart="49.20" departLane="random" departPos="random" departSpeed="random">
        <route edges="InB_NE_1 InB_NE_2 Mid_EN_2 Mid_E_2 Mid_W_2 OutB_WM_2 OutB_WM_1"/>
    </vehicle>
    <vehicle id="83" type="vehDist2" depart="49.80" departLane="random" departPos="random" departSpeed="random">
        <route edges="InB_SM_1 InB_SM_2 Mid_S_1 Mid_N_1 OutB_NM_2 OutB_NM_1"/>
    </vehicle>
    <vehicle id="84" type="vehDist3" depart="50.40" departLane="random" departPos="random" departSpeed="random">
        <route edges="InB_SM_1 InB_SM_2 Mid_S_1 Mid_E_1 Mid_EN_1 OutB_EN_2 OutB_EN_1"/>
    </vehicle>
    <vehicle id="85" type="vehDist1" depart="51.00" departLane="random" departPos="random" departSpeed="random">
        <route edges="InB_WM_1 InB_WM_2 Mid_W_1 Mid_E_1 Mid_ES_2 OutB_ES_2 OutB_ES_1"/>
    </vehicle>
    <vehicle id="86" type="vehDist2" depart="51.60" departLane="random" departPos="random" departSpeed="random">
        <route edges="InB_ES_1 InB_ES_2 Mid_ES_1 Mid_E_2 Mid_W_2 Mid_WN_1 OutB_NW_2 OutB_NW_1"/>
    </vehicle>
    <vehicle id="87" type="vehDist4" depart="52.20" departLane="random" departPos="random" departSpeed="random">
        <route edges="InB_EN_1 InB_EN_2 Mid_EN_2 Mid_E_2 Mid_S_2 OutB_SM_2 OutB_SM_1"/>
    </vehicle>
    <vehicle id="88" type="vehDist2" depart="52.80" departLane="random" departPos="random" departSpeed="random">
        <route edges="InB_NW_1 InB_NW_2 Mid_WN_2 Mid_W_1 Mid_E_1 OutB_EM_2 OutB_EM_1"/>
    </vehicle>
    <vehicle id="89" type="vehDist2" depart="53.40" departLane="random" departPos="random" departSpeed="random">
        <route edges="InB_NM_1 InB_NM_2 Mid_N_2 Mid_E_1 Mid_ES_2 OutB_SE_2 OutB_SE_1"/>
    </vehicle>
    <vehicle id="90" type="vehDist1" depart="54.00" departLane="random" departPos="random" departSpeed="random">
        <route edges="InB_EN_1 InB_EN_2 Mid_EN_2 Mid_E_2 Mid_W_2 OutB_WM_2 OutB_WM_1"/>
    </vehicle>
    <vehicle id="91" type="vehDist4" depart="54.60" departLane="random" departPos="random" departSpeed="random">
        <route edges="InB_SE_1 InB_SE_2 Mid_ES_1 Mid_EN_1 OutB_EN_2 OutB_EN_1"/>
    </vehicle>
    <vehicle id="92" type="vehDist0" depart="55.20" departLane="random" departPos="random" departSpeed="random">
        <route edges="InB_EM_1 InB_EM_2 Mid_E_2 Mid_W_2 Mid_WN_1 OutB_WN_2 OutB_WN_1"/>
    </vehicle>
    <vehicle id="93" type="vehDist1" depart="55.80" departLane="random" departPos="random" departSpeed="random">
        <route edges="InB_SE_1 InB_SE_2 Mid_ES_1 Mid_E_2 Mid_W_2 Mid_WN_1 OutB_NW_2 OutB_NW_1"/>
    </vehicle>
    <vehicle id="94" type="vehDist0" depart="56.40" departLane="random" departPos="random" departSpeed="random">
        <route edges="InB_WM_1 InB_WM_2 Mid_W_1 Mid_E_1 Mid_ES_2 OutB_SE_2 OutB_SE_1"/>
    </vehicle>
    <vehicle id="95" type="vehDist4" depart="57.00" departLane="random" departPos="random" departSpeed="random">
        <route edges="InB_WN_1 InB_WN_2 Mid_NW_1 Mid_N_2 Mid_S_2 OutB_SM_2 OutB_SM_1"/>
    </vehicle>
    <vehicle id="96" type="vehDist3" depart="57.60" departLane="random" departPos="random" departSpeed="random">
        <route edges="InB_ES_1 InB_ES_2 Mid_ES_1 Mid_EN_1 OutB_NE_2 OutB_NE_1"/>
    </vehicle>
    <vehicle id="97" type="vehDist4" depart="58.20" departLane="random" departPos="random" departSpeed="random">
        <route edges="InB_SW_1 InB_SW_2 Mid_WS_1 Mid_W_1 Mid_E_1 Mid_EN_1 OutB_NE_2 OutB_NE_1"/>
    </vehicle>
    <vehicle id="98" type="vehDist2" depart="58.80" departLane="random" departPos="random" departSpeed="random">
        <route edges="InB_ES_1 InB_ES_2 Mid_SE_2 Mid_SW_2 OutB_SW_2 OutB_SW_1"/>
    </vehicle>
    <vehicle id="99" type="vehDist2" depart="59.40" departLane="random" departPos="random" departSpeed="random">
        <route edges="InB_SW_1 InB_SW_2 Mid_WS_1 Mid_WN_1 Mid_NW_1 OutB_NM_2 OutB_NM_1"/>
    </vehicle>
    <vehicle id="100" type="vehDist3" depart="60.00" departLane="random" departPos="random" departSpeed="random">
        <route edges="InB_ES_1 InB_ES_2 Mid_ES_1 Mid_E_2 Mid_N_1 Mid_NW_2 OutB_WN_2 OutB_WN_1"/>
    </vehicle>
    <vehicle id="101" type="vehDist2" depart="60.60" departLane="random" departPos="random" departSpeed="random">
        <route edges="InB_SE_1 InB_SE_2 Mid_ES_1 Mid_EN_1 OutB_NE_2 OutB_NE_1"/>
    </vehicle>
    <vehicle id="102" type="vehDist4" depart="61.20" departLane="random" departPos="random" departSpeed="random">
        <route edges="InB_ES_1 InB_ES_2 Mid_ES_1 Mid_E_2 Mid_N_1 Mid_NW_2 OutB_WN_2 OutB_WN_1"/>
    </vehicle>
    <vehicle id="103" type="vehDist2" depart="61.80" departLane="random" departPos="random" departSpeed="random">
        <route edges="InB_SE_1 InB_SE_2 Mid_ES_1 Mid_E_2 Mid_W_2 OutB_WM_2 OutB_WM_1"/>
    </vehicle>
    <vehicle id="104" type="vehDist4" depart="62.40" departLane="random" departPos="random" departSpeed="random">
        <route edges="InB_WS_1 InB_WS_2 Mid_SW_1 Mid_S_1 Mid_E_1 Mid_EN_1 OutB_EN_2 OutB_EN_1"/>
    </vehicle>
    <vehicle id="105" type="vehDist1" depart="63.00" departLane="random" departPos="random" departSpeed="random">
        <route edges="InB_WS_1 InB_WS_2 Mid_SW_1 Mid_SE_1 OutB_SE_2 OutB_SE_1"/>
    </vehicle>
    <vehicle id="106" type="vehDist2" depart="63.60" departLane="random" departPos="random" departSpeed="random">
        <route edges="InB_EM_1 InB_EM_2 Mid_E_2 Mid_W_2 Mid_WN_1 OutB_NW_2 OutB_NW_1"/>
    </vehicle>
    <vehicle id="107" type="vehDist1" depart="64.20" departLane="random" departPos="random" departSpeed="random">
        <route edges="InB_WN_1 InB_WN_2 Mid_WN_2 Mid_W_1 Mid_E_1 Mid_ES_2 OutB_ES_2 OutB_ES_1"/>
    </vehicle>
    <vehicle id="108" type="vehDist3" depart="64.80" departLane="random" departPos="random" departSpeed="random">
        <route edges="InB_NW_1 InB_NW_2 Mid_WN_2 Mid_WS_2 Mid_SW_1 OutB_SM_2 OutB_SM_1"/>
    </vehicle>
    <vehicle id="109" type="vehDist0" depart="65.40" departLane="random" departPos="random" departSpeed="random">
        <route edges="InB_SE_1 InB_SE_2 Mid_ES_1 Mid_E_2 Mid_W_2 Mid_WN_1 OutB_NW_2 OutB_NW_1"/>
    </vehicle>
    <vehicle id="110" type="vehDist2" depart="66.00" departLane="random" departPos="random" departSpeed="random">
        <route edges="InB_NE_1 InB_NE_2 Mid_EN_2 Mid_E_2 Mid_W_2 Mid_WS_2 OutB_WS_2 OutB_WS_1"/>
    </vehicle>
    <vehicle id="111" type="vehDist3" depart="66.60" departLane="random" departPos="random" departSpeed="random">
        <route edges="InB_SE_1 InB_SE_2 Mid_ES_1 Mid_E_2 Mid_W_2 Mid_WN_1 OutB_NW_2 OutB_NW_1"/>
    </vehicle>
    <vehicle id="112" type="vehDist3" depart="67.20" departLane="random" departPos="random" departSpeed="random">
        <route edges="InB_SW_1 InB_SW_2 Mid_WS_1 Mid_W_1 Mid_E_1 Mid_EN_1 OutB_NE_2 OutB_NE_1"/>
    </vehicle>
    <vehicle id="113" type="vehDist1" depart="67.80" departLane="random" departPos="random" departSpeed="random">
        <route edges="InB_EN_1 InB_EN_2 Mid_EN_2 Mid_E_2 Mid_S_2 OutB_SM_2 OutB_SM_1"/>
    </vehicle>
    <vehicle id="114" type="vehDist3" depart="68.40" departLane="random" departPos="random" departSpeed="random">
        <route edges="InB_SE_1 InB_SE_2 Mid_ES_1 Mid_E_2 Mid_W_2 Mid_WN_1 OutB_NW_2 OutB_NW_1"/>
    </vehicle>
    <vehicle id="115" type="vehDist0" depart="69.00" departLane="random" departPos="random" departSpeed="random">
        <route edges="InB_SM_1 InB_SM_2 Mid_S_1 Mid_N_1 OutB_NM_2 OutB_NM_1"/>
    </vehicle>
    <vehicle id="116" type="vehDist3" depart="69.60" departLane="random" departPos="random" departSpeed="random">
        <route edges="InB_WS_1 InB_WS_2 Mid_WS_1 Mid_WN_1 OutB_NW_2 OutB_NW_1"/>
    </vehicle>
    <vehicle id="117" type="vehDist0" depart="70.20" departLane="random" departPos="random" departSpeed="random">
        <route edges="InB_NW_1 InB_NW_2 Mid_WN_2 Mid_WS_2 Mid_SW_1 OutB_SM_2 OutB_SM_1"/>
    </vehicle>
    <vehicle id="118" type="vehDist4" depart="70.80" departLane="random" departPos="random" departSpeed="random">
        <route edges="InB_SE_1 InB_SE_2 Mid_ES_1 Mid_E_2 Mid_W_2 Mid_WN_1 OutB_NW_2 OutB_NW_1"/>
    </vehicle>
    <vehicle id="119" type="vehDist1" depart="71.40" departLane="random" departPos="random" departSpeed="random">
        <route edges="InB_EN_1 InB_EN_2 Mid_NE_2 Mid_NW_2 OutB_WN_2 OutB_WN_1"/>
    </vehicle>
    <vehicle id="120" type="vehDist2" depart="72.00" departLane="random" departPos="random" departSpeed="random">
        <route edges="InB_NM_1 InB_NM_2 Mid_N_2 Mid_E_1 Mid_ES_2 OutB_SE_2 OutB_SE_1"/>
    </vehicle>
    <vehicle id="121" type="vehDist0" depart="72.60" departLane="random" departPos="random" departSpeed="random">
        <route edges="InB_WM_1 InB_WM_2 Mid_W_1 Mid_E_1 Mid_EN_1 OutB_EN_2 OutB_EN_1"/>
    </vehicle>
    <vehicle id="122" type="vehDist1" depart="73.20" departLane="random" departPos="random" departSpeed="random">
        <route edges="InB_SW_1 InB_SW_2 Mid_WS_1 Mid_WN_1 OutB_WN_2 OutB_WN_1"/>
    </vehicle>
    <vehicle id="123" type="vehDist3" depart="73.80" departLane="random" departPos="random" departSpeed="random">
        <route edges="InB_ES_1 InB_ES_2 Mid_ES_1 Mid_E_2 Mid_N_1 Mid_NW_2 OutB_WN_2 OutB_WN_1"/>
    </vehicle>
    <vehicle id="124" type="vehDist4" depart="74.40" departLane="random" departPos="random" departSpeed="random">
        <route edges="InB_SE_1 InB_SE_2 Mid_ES_1 Mid_EN_1 OutB_NE_2 OutB_NE_1"/>
    </vehicle>
    <vehicle id="125" type="vehDist4" depart="75.00" departLane="random" departPos="random" departSpeed="random">
        <route edges="InB_NE_1 InB_NE_2 Mid_EN_2 Mid_ES_2 OutB_SE_2 OutB_SE_1"/>
    </vehicle>
    <vehicle id="126" type="vehDist0" depart="75.60" departLane="random" departPos="random" departSpeed="random">
        <route edges="InB_EM_1 InB_EM_2 Mid_E_2 Mid_W_2 OutB_WM_2 OutB_WM_1"/>
    </vehicle>
    <vehicle id="127" type="vehDist4" depart="76.20" departLane="random" departPos="random" departSpeed="random">
        <route edges="InB_WS_1 InB_WS_2 Mid_SW_1 Mid_S_1 Mid_E_1 Mid_EN_1 OutB_NE_2 OutB_NE_1"/>
    </vehicle>
    <vehicle id="128" type="vehDist1" depart="76.80" departLane="random" departPos="random" departSpeed="random">
        <route edges="InB_ES_1 InB_ES_2 Mid_SE_2 Mid_SW_2 OutB_WS_2 OutB_WS_1"/>
    </vehicle>
    <vehicle id="129" type="vehDist3" depart="77.40" departLane="random" departPos="random" departSpeed="random">
        <route edges="InB_ES_1 InB_ES_2 Mid_ES_1 Mid_EN_1 OutB_NE_2 OutB_NE_1"/>
    </vehicle>
    <vehicle id="130" type="vehDist2" depart="78.00" departLane="random" departPos="random" departSpeed="random">
        <route edges="InB_EN_1 InB_EN_2 Mid_NE_2 Mid_NW_2 OutB_NW_2 OutB_NW_1"/>
    </vehicle>
    <vehicle id="131" type="vehDist2" depart="78.60" departLane="random" departPos="random" departSpeed="random">