<?xml version="1.0" encoding="UTF-8"?>

<!-- generated on 02/15/21 02:18:19 by Eclipse SUMO netedit Version 1.6.0
<configuration xmlns:xsi="http://www.w3.org/2001/XMLSchema-instance" xsi:noNamespaceSchemaLocation="http://sumo.dlr.de/xsd/netconvertConfiguration.xsd">

    <input>
        <sumo-net-file value="D:\Picasso\kmitl_ce4\Project\Reinforcement_traffic_control\Semester_2\map\16-way\16-way.net.xml"/>
    </input>

    <output>
        <output-file value="D:\Picasso\kmitl_ce4\Project\Reinforcement_traffic_control\Semester_2\map\16-way\16-way.net.xml"/>
    </output>

    <processing>
        <geometry.min-radius.fix.railways value="false"/>
        <geometry.max-grade.fix value="false"/>
        <offset.disable-normalization value="true"/>
        <lefthand value="true"/>
    </processing>

    <junctions>
        <no-turnarounds value="true"/>
        <junctions.corner-detail value="5"/>
        <junctions.limit-turn-speed value="5.5"/>
        <rectangular-lane-cut value="false"/>
    </junctions>

    <pedestrian>
        <walkingareas value="false"/>
    </pedestrian>

    <report>
        <aggregate-warnings value="5"/>
    </report>

</configuration>
-->

<net version="1.6" junctionCornerDetail="5" lefthand="true" limitTurnSpeed="5.50" xmlns:xsi="http://www.w3.org/2001/XMLSchema-instance" xsi:noNamespaceSchemaLocation="http://sumo.dlr.de/xsd/net_file.xsd">

    <location netOffset="0.00,0.00" convBoundary="-2500.00,-7500.00,7500.00,2500.00" origBoundary="-10000000000.00,-10000000000.00,10000000000.00,10000000000.00" projParameter="!"/>

    <edge id=":TFL_1_0" function="internal">
        <lane id=":TFL_1_0_0" index="0" speed="6.51" length="9.03" shape="-4.80,-10.40 -5.15,-7.95 -6.20,-6.20 -7.95,-5.15 -10.40,-4.80"/>
    </edge>
    <edge id=":TFL_1_1" function="internal">
        <lane id=":TFL_1_1_0" index="0" speed="13.89" length="20.80" shape="-4.80,-10.40 -4.80,10.40"/>
    </edge>
    <edge id=":TFL_1_2" function="internal">
        <lane id=":TFL_1_2_0" index="0" speed="9.26" length="11.78" shape="-1.60,-10.40 -0.85,-5.15 1.40,-1.40 3.20,-0.32"/>
    </edge>
    <edge id=":TFL_1_12" function="internal">
        <lane id=":TFL_1_12_0" index="0" speed="9.26" length="7.58" shape="3.20,-0.32 5.15,0.85 10.40,1.60"/>
    </edge>
    <edge id=":TFL_1_3" function="internal">
        <lane id=":TFL_1_3_0" index="0" speed="6.51" length="9.03" shape="10.40,-4.80 7.95,-5.15 6.20,-6.20 5.15,-7.95 4.80,-10.40"/>
    </edge>
    <edge id=":TFL_1_4" function="internal">
        <lane id=":TFL_1_4_0" index="0" speed="13.89" length="20.80" shape="10.40,-4.80 -10.40,-4.80"/>
    </edge>
    <edge id=":TFL_1_5" function="internal">
        <lane id=":TFL_1_5_0" index="0" speed="9.26" length="11.78" shape="10.40,-1.60 5.15,-0.85 1.40,1.40 0.32,3.20"/>
    </edge>
    <edge id=":TFL_1_13" function="internal">
        <lane id=":TFL_1_13_0" index="0" speed="9.26" length="7.58" shape="0.32,3.20 -0.85,5.15 -1.60,10.40"/>
    </edge>
    <edge id=":TFL_1_6" function="internal">
        <lane id=":TFL_1_6_0" index="0" speed="6.51" length="9.03" shape="4.80,10.40 5.15,7.95 6.20,6.20 7.95,5.15 10.40,4.80"/>
    </edge>
    <edge id=":TFL_1_7" function="internal">
        <lane id=":TFL_1_7_0" index="0" speed="13.89" length="20.80" shape="4.80,10.40 4.80,-10.40"/>
    </edge>
    <edge id=":TFL_1_8" function="internal">
        <lane id=":TFL_1_8_0" index="0" speed="9.26" length="11.78" shape="1.60,10.40 0.85,5.15 -1.40,1.40 -3.20,0.32"/>
    </edge>
    <edge id=":TFL_1_14" function="internal">
        <lane id=":TFL_1_14_0" index="0" speed="9.26" length="7.58" shape="-3.20,0.32 -5.15,-0.85 -10.40,-1.60"/>
    </edge>
    <edge id=":TFL_1_9" function="internal">
        <lane id=":TFL_1_9_0" index="0" speed="6.51" length="9.03" shape="-10.40,4.80 -7.95,5.15 -6.20,6.20 -5.15,7.95 -4.80,10.40"/>
    </edge>
    <edge id=":TFL_1_10" function="internal">
        <lane id=":TFL_1_10_0" index="0" speed="13.89" length="20.80" shape="-10.40,4.80 10.40,4.80"/>
    </edge>
    <edge id=":TFL_1_11" function="internal">
        <lane id=":TFL_1_11_0" index="0" speed="9.26" length="11.78" shape="-10.40,1.60 -5.15,0.85 -1.40,-1.40 -0.32,-3.20"/>
    </edge>
    <edge id=":TFL_1_15" function="internal">
        <lane id=":TFL_1_15_0" index="0" speed="9.26" length="7.58" shape="-0.32,-3.20 0.85,-5.15 1.60,-10.40"/>
    </edge>
    <edge id=":TFL_2_0" function="internal">
        <lane id=":TFL_2_0_0" index="0" speed="6.51" length="9.03" shape="4995.20,-10.40 4994.85,-7.95 4993.80,-6.20 4992.05,-5.15 4989.60,-4.80"/>
    </edge>
    <edge id=":TFL_2_1" function="internal">
        <lane id=":TFL_2_1_0" index="0" speed="13.89" length="20.80" shape="4995.20,-10.40 4995.20,10.40"/>
    </edge>
    <edge id=":TFL_2_2" function="internal">
        <lane id=":TFL_2_2_0" index="0" speed="9.26" length="11.78" shape="4998.40,-10.40 4999.15,-5.15 5001.40,-1.40 5003.20,-0.32"/>
    </edge>
    <edge id=":TFL_2_12" function="internal">
        <lane id=":TFL_2_12_0" index="0" speed="9.26" length="7.58" shape="5003.20,-0.32 5005.15,0.85 5010.40,1.60"/>
    </edge>
    <edge id=":TFL_2_3" function="internal">
        <lane id=":TFL_2_3_0" index="0" speed="6.51" length="9.03" shape="5010.40,-4.80 5007.95,-5.15 5006.20,-6.20 5005.15,-7.95 5004.80,-10.40"/>
    </edge>
    <edge id=":TFL_2_4" function="internal">
        <lane id=":TFL_2_4_0" index="0" speed="13.89" length="20.80" shape="5010.40,-4.80 4989.60,-4.80"/>
    </edge>
    <edge id=":TFL_2_5" function="internal">
        <lane id=":TFL_2_5_0" index="0" speed="9.26" length="11.78" shape="5010.40,-1.60 5005.15,-0.85 5001.40,1.40 5000.32,3.20"/>
    </edge>
    <edge id=":TFL_2_13" function="internal">
        <lane id=":TFL_2_13_0" index="0" speed="9.26" length="7.58" shape="5000.32,3.20 4999.15,5.15 4998.40,10.40"/>
    </edge>
    <edge id=":TFL_2_6" function="internal">
        <lane id=":TFL_2_6_0" index="0" speed="6.51" length="9.03" shape="5004.80,10.40 5005.15,7.95 5006.20,6.20 5007.95,5.15 5010.40,4.80"/>
    </edge>
    <edge id=":TFL_2_7" function="internal">
        <lane id=":TFL_2_7_0" index="0" speed="13.89" length="20.80" shape="5004.80,10.40 5004.80,-10.40"/>
    </edge>
    <edge id=":TFL_2_8" function="internal">
        <lane id=":TFL_2_8_0" index="0" speed="9.26" length="11.78" shape="5001.60,10.40 5000.85,5.15 4998.60,1.40 4996.80,0.32"/>
    </edge>
    <edge id=":TFL_2_14" function="internal">
        <lane id=":TFL_2_14_0" index="0" speed="9.26" length="7.58" shape="4996.80,0.32 4994.85,-0.85 4989.60,-1.60"/>
    </edge>
    <edge id=":TFL_2_9" function="internal">
        <lane id=":TFL_2_9_0" index="0" speed="6.51" length="9.03" shape="4989.60,4.80 4992.05,5.15 4993.80,6.20 4994.85,7.95 4995.20,10.40"/>
    </edge>
    <edge id=":TFL_2_10" function="internal">
        <lane id=":TFL_2_10_0" index="0" speed="13.89" length="20.80" shape="4989.60,4.80 5010.40,4.80"/>
    </edge>
    <edge id=":TFL_2_11" function="internal">
        <lane id=":TFL_2_11_0" index="0" speed="9.26" length="11.78" shape="4989.60,1.60 4994.85,0.85 4998.60,-1.40 4999.68,-3.20"/>
    </edge>
    <edge id=":TFL_2_15" function="internal">
        <lane id=":TFL_2_15_0" index="0" speed="9.26" length="7.58" shape="4999.68,-3.20 5000.85,-5.15 5001.60,-10.40"/>
    </edge>
    <edge id=":TFL_3_0" function="internal">
        <lane id=":TFL_3_0_0" index="0" speed="6.51" length="9.03" shape="4995.20,-5010.40 4994.85,-5007.95 4993.80,-5006.20 4992.05,-5005.15 4989.60,-5004.80"/>
    </edge>
    <edge id=":TFL_3_1" function="internal">
        <lane id=":TFL_3_1_0" index="0" speed="13.89" length="20.80" shape="4995.20,-5010.40 4995.20,-4989.60"/>
    </edge>
    <edge id=":TFL_3_2" function="internal">
        <lane id=":TFL_3_2_0" index="0" speed="9.26" length="11.78" shape="4998.40,-5010.40 4999.15,-5005.15 5001.40,-5001.40 5003.20,-5000.32"/>
    </edge>
    <edge id=":TFL_3_12" function="internal">
        <lane id=":TFL_3_12_0" index="0" speed="9.26" length="7.58" shape="5003.20,-5000.32 5005.15,-4999.15 5010.40,-4998.40"/>
    </edge>
    <edge id=":TFL_3_3" function="internal">
        <lane id=":TFL_3_3_0" index="0" speed="6.51" length="9.03" shape="5010.40,-5004.80 5007.95,-5005.15 5006.20,-5006.20 5005.15,-5007.95 5004.80,-5010.40"/>
    </edge>
    <edge id=":TFL_3_4" function="internal">
        <lane id=":TFL_3_4_0" index="0" speed="13.89" length="20.80" shape="5010.40,-5004.80 4989.60,-5004.80"/>
    </edge>
    <edge id=":TFL_3_5" function="internal">
        <lane id=":TFL_3_5_0" index="0" speed="9.26" length="11.78" shape="5010.40,-5001.60 5005.15,-5000.85 5001.40,-4998.60 5000.32,-4996.80"/>
    </edge>
    <edge id=":TFL_3_13" function="internal">
        <lane id=":TFL_3_13_0" index="0" speed="9.26" length="7.58" shape="5000.32,-4996.80 4999.15,-4994.85 4998.40,-4989.60"/>
    </edge>
    <edge id=":TFL_3_6" function="internal">
        <lane id=":TFL_3_6_0" index="0" speed="6.51" length="9.03" shape="5004.80,-4989.60 5005.15,-4992.05 5006.20,-4993.80 5007.95,-4994.85 5010.40,-4995.20"/>
    </edge>
    <edge id=":TFL_3_7" function="internal">
        <lane id=":TFL_3_7_0" index="0" speed="13.89" length="20.80" shape="5004.80,-4989.60 5004.80,-5010.40"/>
    </edge>
    <edge id=":TFL_3_8" function="internal">
        <lane id=":TFL_3_8_0" index="0" speed="9.26" length="11.78" shape="5001.60,-4989.60 5000.85,-4994.85 4998.60,-4998.60 4996.80,-4999.68"/>
    </edge>
    <edge id=":TFL_3_14" function="internal">
        <lane id=":TFL_3_14_0" index="0" speed="9.26" length="7.58" shape="4996.80,-4999.68 4994.85,-5000.85 4989.60,-5001.60"/>
    </edge>
    <edge id=":TFL_3_9" function="internal">
        <lane id=":TFL_3_9_0" index="0" speed="6.51" length="9.03" shape="4989.60,-4995.20 4992.05,-4994.85 4993.80,-4993.80 4994.85,-4992.05 4995.20,-4989.60"/>
    </edge>
    <edge id=":TFL_3_10" function="internal">
        <lane id=":TFL_3_10_0" index="0" speed="13.89" length="20.80" shape="4989.60,-4995.20 5010.40,-4995.20"/>
    </edge>
    <edge id=":TFL_3_11" function="internal">
        <lane id=":TFL_3_11_0" index="0" speed="9.26" length="11.78" shape="4989.60,-4998.40 4994.85,-4999.15 4998.60,-5001.40 4999.68,-5003.20"/>
    </edge>
    <edge id=":TFL_3_15" function="internal">
        <lane id=":TFL_3_15_0" index="0" speed="9.26" length="7.58" shape="4999.68,-5003.20 5000.85,-5005.15 5001.60,-5010.40"/>
    </edge>
    <edge id=":TFL_4_0" function="internal">
        <lane id=":TFL_4_0_0" index="0" speed="6.51" length="9.03" shape="-4.80,-5010.40 -5.15,-5007.95 -6.20,-5006.20 -7.95,-5005.15 -10.40,-5004.80"/>
    </edge>
    <edge id=":TFL_4_1" function="internal">
        <lane id=":TFL_4_1_0" index="0" speed="13.89" length="20.80" shape="-4.80,-5010.40 -4.80,-4989.60"/>
    </edge>
    <edge id=":TFL_4_2" function="internal">
        <lane id=":TFL_4_2_0" index="0" speed="9.26" length="11.78" shape="-1.60,-5010.40 -0.85,-5005.15 1.40,-5001.40 3.20,-5000.32"/>
    </edge>
    <edge id=":TFL_4_12" function="internal">
        <lane id=":TFL_4_12_0" index="0" speed="9.26" length="7.58" shape="3.20,-5000.32 5.15,-4999.15 10.40,-4998.40"/>
    </edge>
    <edge id=":TFL_4_3" function="internal">
        <lane id=":TFL_4_3_0" index="0" speed="6.51" length="9.03" shape="10.40,-5004.80 7.95,-5005.15 6.20,-5006.20 5.15,-5007.95 4.80,-5010.40"/>
    </edge>
    <edge id=":TFL_4_4" function="internal">
        <lane id=":TFL_4_4_0" index="0" speed="13.89" length="20.80" shape="10.40,-5004.80 -10.40,-5004.80"/>
    </edge>
    <edge id=":TFL_4_5" function="internal">
        <lane id=":TFL_4_5_0" index="0" speed="9.26" length="11.78" shape="10.40,-5001.60 5.15,-5000.85 1.40,-4998.60 0.32,-4996.80"/>
    </edge>
    <edge id=":TFL_4_13" function="internal">
        <lane id=":TFL_4_13_0" index="0" speed="9.26" length="7.58" shape="0.32,-4996.80 -0.85,-4994.85 -1.60,-4989.60"/>
    </edge>
    <edge id=":TFL_4_6" function="internal">
        <lane id=":TFL_4_6_0" index="0" speed="6.51" length="9.03" shape="4.80,-4989.60 5.15,-4992.05 6.20,-4993.80 7.95,-4994.85 10.40,-4995.20"/>
    </edge>
    <edge id=":TFL_4_7" function="internal">
        <lane id=":TFL_4_7_0" index="0" speed="13.89" length="20.80" shape="4.80,-4989.60 4.80,-5010.40"/>
    </edge>
    <edge id=":TFL_4_8" function="internal">
        <lane id=":TFL_4_8_0" index="0" speed="9.26" length="11.78" shape="1.60,-4989.60 0.85,-4994.85 -1.40,-4998.60 -3.20,-4999.68"/>
    </edge>
    <edge id=":TFL_4_14" function="internal">
        <lane id=":TFL_4_14_0" index="0" speed="9.26" length="7.58" shape="-3.20,-4999.68 -5.15,-5000.85 -10.40,-5001.60"/>
    </edge>
    <edge id=":TFL_4_9" function="internal">
        <lane id=":TFL_4_9_0" index="0" speed="6.51" length="9.03" shape="-10.40,-4995.20 -7.95,-4994.85 -6.20,-4993.80 -5.15,-4992.05 -4.80,-4989.60"/>
    </edge>
    <edge id=":TFL_4_10" function="internal">
        <lane id=":TFL_4_10_0" index="0" speed="13.89" length="20.80" shape="-10.40,-4995.20 10.40,-4995.20"/>
    </edge>
    <edge id=":TFL_4_11" function="internal">
        <lane id=":TFL_4_11_0" index="0" speed="9.26" length="11.78" shape="-10.40,-4998.40 -5.15,-4999.15 -1.40,-5001.40 -0.32,-5003.20"/>
    </edge>
    <edge id=":TFL_4_15" function="internal">
        <lane id=":TFL_4_15_0" index="0" speed="9.26" length="7.58" shape="-0.32,-5003.20 0.85,-5005.15 1.60,-5010.40"/>
    </edge>
    <edge id=":U_Turn_E_0" function="internal">
        <lane id=":U_Turn_E_0_0" index="0" speed="13.89" length="0.10" shape="4995.20,-2500.00 4995.20,-2500.00"/>
        <lane id=":U_Turn_E_0_1" index="1" speed="13.89" length="0.10" shape="4998.40,-2500.00 4998.40,-2500.00"/>
    </edge>
    <edge id=":U_Turn_E_2" function="internal">
        <lane id=":U_Turn_E_2_0" index="0" speed="3.65" length="2.34" shape="4998.40,-2500.00 4999.20,-2498.80 5000.00,-2498.40"/>
    </edge>
    <edge id=":U_Turn_E_6" function="internal">
        <lane id=":U_Turn_E_6_0" index="0" speed="3.65" length="2.34" shape="5000.00,-2498.40 5000.80,-2498.80 5001.60,-2500.00"/>
    </edge>
    <edge id=":U_Turn_E_3" function="internal">
        <lane id=":U_Turn_E_3_0" index="0" speed="13.89" length="0.10" shape="5004.80,-2500.00 5004.80,-2500.00"/>
        <lane id=":U_Turn_E_3_1" index="1" speed="13.89" length="0.10" shape="5001.60,-2500.00 5001.60,-2500.00"/>
    </edge>
    <edge id=":U_Turn_E_5" function="internal">
        <lane id=":U_Turn_E_5_0" index="0" speed="3.65" length="2.34" shape="5001.60,-2500.00 5000.80,-2501.20 5000.00,-2501.60"/>
    </edge>
    <edge id=":U_Turn_E_7" function="internal">
        <lane id=":U_Turn_E_7_0" index="0" speed="3.65" length="2.34" shape="5000.00,-2501.60 4999.20,-2501.20 4998.40,-2500.00"/>
    </edge>
    <edge id=":U_Turn_EN_0" function="internal">
        <lane id=":U_Turn_EN_0_0" index="0" speed="13.89" length="0.10" shape="7400.00,-4.80 7400.00,-4.80"/>
        <lane id=":U_Turn_EN_0_1" index="1" speed="13.89" length="0.10" shape="7400.00,-1.60 7400.00,-1.60"/>
    </edge>
    <edge id=":U_Turn_EN_2" function="internal">
        <lane id=":U_Turn_EN_2_0" index="0" speed="13.89" length="0.10" shape="7400.00,4.80 7400.00,4.80"/>
        <lane id=":U_Turn_EN_2_1" index="1" speed="13.89" length="0.10" shape="7400.00,1.60 7400.00,1.60"/>
    </edge>
    <edge id=":U_Turn_EN_4" function="internal">
        <lane id=":U_Turn_EN_4_0" index="0" speed="3.65" length="2.34" shape="7400.00,1.60 7401.20,0.80 7401.60,-0.00"/>
    </edge>
    <edge id=":U_Turn_EN_5" function="internal">
        <lane id=":U_Turn_EN_5_0" index="0" speed="3.65" length="2.34" shape="7401.60,-0.00 7401.20,-0.80 7400.00,-1.60"/>
    </edge>
    <edge id=":U_Turn_ES_0" function="internal">
        <lane id=":U_Turn_ES_0_0" index="0" speed="13.89" length="0.10" shape="7400.00,-5004.80 7400.00,-5004.80"/>
        <lane id=":U_Turn_ES_0_1" index="1" speed="13.89" length="0.10" shape="7400.00,-5001.60 7400.00,-5001.60"/>
    </edge>
    <edge id=":U_Turn_ES_2" function="internal">
        <lane id=":U_Turn_ES_2_0" index="0" speed="13.89" length="0.10" shape="7400.00,-4995.20 7400.00,-4995.20"/>
        <lane id=":U_Turn_ES_2_1" index="1" speed="13.89" length="0.10" shape="7400.00,-4998.40 7400.00,-4998.40"/>
    </edge>
    <edge id=":U_Turn_ES_4" function="internal">
        <lane id=":U_Turn_ES_4_0" index="0" speed="3.65" length="2.34" shape="7400.00,-4998.40 7401.20,-4999.20 7401.60,-5000.00"/>
    </edge>
    <edge id=":U_Turn_ES_5" function="internal">
        <lane id=":U_Turn_ES_5_0" index="0" speed="3.65" length="2.34" shape="7401.60,-5000.00 7401.20,-5000.80 7400.00,-5001.60"/>
    </edge>
    <edge id=":U_Turn_N_0" function="internal">
        <lane id=":U_Turn_N_0_0" index="0" speed="13.89" length="0.10" shape="2500.00,-4.80 2500.00,-4.80"/>
        <lane id=":U_Turn_N_0_1" index="1" speed="13.89" length="0.10" shape="2500.00,-1.60 2500.00,-1.60"/>
    </edge>
    <edge id=":U_Turn_N_2" function="internal">
        <lane id=":U_Turn_N_2_0" index="0" speed="3.65" length="2.34" shape="2500.00,-1.60 2498.80,-0.80 2498.40,-0.00"/>
    </edge>
    <edge id=":U_Turn_N_6" function="internal">
        <lane id=":U_Turn_N_6_0" index="0" speed="3.65" length="2.34" shape="2498.40,-0.00 2498.80,0.80 2500.00,1.60"/>
    </edge>
    <edge id=":U_Turn_N_3" function="internal">
        <lane id=":U_Turn_N_3_0" index="0" speed="13.89" length="0.10" shape="2500.00,4.80 2500.00,4.80"/>
        <lane id=":U_Turn_N_3_1" index="1" speed="13.89" length="0.10" shape="2500.00,1.60 2500.00,1.60"/>
    </edge>
    <edge id=":U_Turn_N_5" function="internal">
        <lane id=":U_Turn_N_5_0" index="0" speed="3.65" length="2.34" shape="2500.00,1.60 2501.20,0.80 2501.60,-0.00"/>
    </edge>
    <edge id=":U_Turn_N_7" function="internal">
        <lane id=":U_Turn_N_7_0" index="0" speed="3.65" length="2.34" shape="2501.60,-0.00 2501.20,-0.80 2500.00,-1.60"/>
    </edge>
    <edge id=":U_Turn_NE_0" function="internal">
        <lane id=":U_Turn_NE_0_0" index="0" speed="13.89" length="0.10" shape="4995.20,2400.00 4995.20,2400.00"/>
        <lane id=":U_Turn_NE_0_1" index="1" speed="13.89" length="0.10" shape="4998.40,2400.00 4998.40,2400.00"/>
    </edge>
    <edge id=":U_Turn_NE_2" function="internal">
        <lane id=":U_Turn_NE_2_0" index="0" speed="3.65" length="2.34" shape="4998.40,2400.00 4999.20,2401.20 5000.00,2401.60"/>
    </edge>
    <edge id=":U_Turn_NE_5" function="internal">
        <lane id=":U_Turn_NE_5_0" index="0" speed="3.65" length="2.34" shape="5000.00,2401.60 5000.80,2401.20 5001.60,2400.00"/>
    </edge>
    <edge id=":U_Turn_NE_3" function="internal">
        <lane id=":U_Turn_NE_3_0" index="0" speed="13.89" length="0.10" shape="5004.80,2400.00 5004.80,2400.00"/>
        <lane id=":U_Turn_NE_3_1" index="1" speed="13.89" length="0.10" shape="5001.60,2400.00 5001.60,2400.00"/>
    </edge>
    <edge id=":U_Turn_NW_0" function="internal">
        <lane id=":U_Turn_NW_0_0" index="0" speed="13.89" length="0.10" shape="-4.80,2400.00 -4.80,2400.00"/>
        <lane id=":U_Turn_NW_0_1" index="1" speed="13.89" length="0.10" shape="-1.60,2400.00 -1.60,2400.00"/>
    </edge>
    <edge id=":U_Turn_NW_2" function="internal">
        <lane id=":U_Turn_NW_2_0" index="0" speed="3.65" length="2.34" shape="-1.60,2400.00 -0.80,2401.20 0.00,2401.60"/>
    </edge>
    <edge id=":U_Turn_NW_5" function="internal">
        <lane id=":U_Turn_NW_5_0" index="0" speed="3.65" length="2.34" shape="0.00,2401.60 0.80,2401.20 1.60,2400.00"/>
    </edge>
    <edge id=":U_Turn_NW_3" function="internal">
        <lane id=":U_Turn_NW_3_0" index="0" speed="13.89" length="0.10" shape="4.80,2400.00 4.80,2400.00"/>
        <lane id=":U_Turn_NW_3_1" index="1" speed="13.89" length="0.10" shape="1.60,2400.00 1.60,2400.00"/>
    </edge>
    <edge id=":U_Turn_S_0" function="internal">
        <lane id=":U_Turn_S_0_0" index="0" speed="13.89" length="0.10" shape="2500.00,-5004.80 2500.00,-5004.80"/>
        <lane id=":U_Turn_S_0_1" index="1" speed="13.89" length="0.10" shape="2500.00,-5001.60 2500.00,-5001.60"/>
    </edge>
    <edge id=":U_Turn_S_2" function="internal">
        <lane id=":U_Turn_S_2_0" index="0" speed="3.65" length="2.34" shape="2500.00,-5001.60 2498.80,-5000.80 2498.40,-5000.00"/>
    </edge>
    <edge id=":U_Turn_S_6" function="internal">
        <lane id=":U_Turn_S_6_0" index="0" speed="3.65" length="2.34" shape="2498.40,-5000.00 2498.80,-4999.20 2500.00,-4998.40"/>
    </edge>
    <edge id=":U_Turn_S_3" function="internal">
        <lane id=":U_Turn_S_3_0" index="0" speed="13.89" length="0.10" shape="2500.00,-4995.20 2500.00,-4995.20"/>
        <lane id=":U_Turn_S_3_1" index="1" speed="13.89" length="0.10" shape="2500.00,-4998.40 2500.00,-4998.40"/>
    </edge>
    <edge id=":U_Turn_S_5" function="internal">
        <lane id=":U_Turn_S_5_0" index="0" speed="3.65" length="2.34" shape="2500.00,-4998.40 2501.20,-4999.20 2501.60,-5000.00"/>
    </edge>
    <edge id=":U_Turn_S_7" function="internal">
        <lane id=":U_Turn_S_7_0" index="0" speed="3.65" length="2.34" shape="2501.60,-5000.00 2501.20,-5000.80 2500.00,-5001.60"/>
    </edge>
    <edge id=":U_Turn_SE_0" function="internal">
        <lane id=":U_Turn_SE_0_0" index="0" speed="13.89" length="0.10" shape="4995.20,-7400.00 4995.20,-7400.00"/>
        <lane id=":U_Turn_SE_0_1" index="1" speed="13.89" length="0.10" shape="4998.40,-7400.00 4998.40,-7400.00"/>
    </edge>
    <edge id=":U_Turn_SE_2" function="internal">
        <lane id=":U_Turn_SE_2_0" index="0" speed="13.89" length="0.10" shape="5004.80,-7400.00 5004.80,-7400.00"/>
        <lane id=":U_Turn_SE_2_1" index="1" speed="13.89" length="0.10" shape="5001.60,-7400.00 5001.60,-7400.00"/>
    </edge>
    <edge id=":U_Turn_SE_4" function="internal">
        <lane id=":U_Turn_SE_4_0" index="0" speed="3.65" length="2.34" shape="5001.60,-7400.00 5000.80,-7401.20 5000.00,-7401.60"/>
    </edge>
    <edge id=":U_Turn_SE_5" function="internal">
        <lane id=":U_Turn_SE_5_0" index="0" speed="3.65" length="2.34" shape="5000.00,-7401.60 4999.20,-7401.20 4998.40,-7400.00"/>
    </edge>
    <edge id=":U_Turn_SW_0" function="internal">
        <lane id=":U_Turn_SW_0_0" index="0" speed="13.89" length="0.10" shape="-4.80,-7400.00 -4.80,-7400.00"/>
        <lane id=":U_Turn_SW_0_1" index="1" speed="13.89" length="0.10" shape="-1.60,-7400.00 -1.60,-7400.00"/>
    </edge>
    <edge id=":U_Turn_SW_2" function="internal">
        <lane id=":U_Turn_SW_2_0" index="0" speed="13.89" length="0.10" shape="4.80,-7400.00 4.80,-7400.00"/>
        <lane id=":U_Turn_SW_2_1" index="1" speed="13.89" length="0.10" shape="1.60,-7400.00 1.60,-7400.00"/>
    </edge>
    <edge id=":U_Turn_SW_4" function="internal">
        <lane id=":U_Turn_SW_4_0" index="0" speed="3.65" length="2.34" shape="1.60,-7400.00 0.80,-7401.20 0.00,-7401.60"/>
    </edge>
    <edge id=":U_Turn_SW_5" function="internal">
        <lane id=":U_Turn_SW_5_0" index="0" speed="3.65" length="2.34" shape="0.00,-7401.60 -0.80,-7401.20 -1.60,-7400.00"/>
    </edge>
    <edge id=":U_Turn_W_0" function="internal">
        <lane id=":U_Turn_W_0_0" index="0" speed="13.89" length="0.10" shape="-4.80,-2500.00 -4.80,-2500.00"/>
        <lane id=":U_Turn_W_0_1" index="1" speed="13.89" length="0.10" shape="-1.60,-2500.00 -1.60,-2500.00"/>
    </edge>
    <edge id=":U_Turn_W_2" function="internal">
        <lane id=":U_Turn_W_2_0" index="0" speed="3.65" length="2.34" shape="-1.60,-2500.00 -0.80,-2498.80 0.00,-2498.40"/>
    </edge>
    <edge id=":U_Turn_W_6" function="internal">
        <lane id=":U_Turn_W_6_0" index="0" speed="3.65" length="2.34" shape="0.00,-2498.40 0.80,-2498.80 1.60,-2500.00"/>
    </edge>
    <edge id=":U_Turn_W_3" function="internal">
        <lane id=":U_Turn_W_3_0" index="0" speed="13.89" length="0.10" shape="4.80,-2500.00 4.80,-2500.00"/>
        <lane id=":U_Turn_W_3_1" index="1" speed="13.89" length="0.10" shape="1.60,-2500.00 1.60,-2500.00"/>
    </edge>
    <edge id=":U_Turn_W_5" function="internal">
        <lane id=":U_Turn_W_5_0" index="0" speed="3.65" length="2.34" shape="1.60,-2500.00 0.80,-2501.20 0.00,-2501.60"/>
    </edge>
    <edge id=":U_Turn_W_7" function="internal">
        <lane id=":U_Turn_W_7_0" index="0" speed="3.65" length="2.34" shape="0.00,-2501.60 -0.80,-2501.20 -1.60,-2500.00"/>
    </edge>
    <edge id=":U_Turn_WN_0" function="internal">
        <lane id=":U_Turn_WN_0_0" index="0" speed="13.89" length="0.10" shape="-2400.00,-4.80 -2400.00,-4.80"/>
        <lane id=":U_Turn_WN_0_1" index="1" speed="13.89" length="0.10" shape="-2400.00,-1.60 -2400.00,-1.60"/>
    </edge>
    <edge id=":U_Turn_WN_2" function="internal">
        <lane id=":U_Turn_WN_2_0" index="0" speed="3.65" length="2.34" shape="-2400.00,-1.60 -2401.20,-0.80 -2401.60,-0.00"/>
    </edge>
    <edge id=":U_Turn_WN_5" function="internal">
        <lane id=":U_Turn_WN_5_0" index="0" speed="3.65" length="2.34" shape="-2401.60,-0.00 -2401.20,0.80 -2400.00,1.60"/>
    </edge>
    <edge id=":U_Turn_WN_3" function="internal">
        <lane id=":U_Turn_WN_3_0" index="0" speed="13.89" length="0.10" shape="-2400.00,4.80 -2400.00,4.80"/>
        <lane id=":U_Turn_WN_3_1" index="1" speed="13.89" length="0.10" shape="-2400.00,1.60 -2400.00,1.60"/>
    </edge>
    <edge id=":U_Turn_WS_0" function="internal">
        <lane id=":U_Turn_WS_0_0" index="0" speed="13.89" length="0.10" shape="-2400.00,-5004.80 -2400.00,-5004.80"/>
        <lane id=":U_Turn_WS_0_1" index="1" speed="13.89" length="0.10" shape="-2400.00,-5001.60 -2400.00,-5001.60"/>
    </edge>
    <edge id=":U_Turn_WS_2" function="internal">
        <lane id=":U_Turn_WS_2_0" index="0" speed="3.65" length="2.34" shape="-2400.00,-5001.60 -2401.20,-5000.80 -2401.60,-5000.00"/>
    </edge>
    <edge id=":U_Turn_WS_5" function="internal">
        <lane id=":U_Turn_WS_5_0" index="0" speed="3.65" length="2.34" shape="-2401.60,-5000.00 -2401.20,-4999.20 -2400.00,-4998.40"/>
    </edge>
    <edge id=":U_Turn_WS_3" function="internal">
        <lane id=":U_Turn_WS_3_0" index="0" speed="13.89" length="0.10" shape="-2400.00,-4995.20 -2400.00,-4995.20"/>
        <lane id=":U_Turn_WS_3_1" index="1" speed="13.89" length="0.10" shape="-2400.00,-4998.40 -2400.00,-4998.40"/>
    </edge>

    <edge id="InB_EN_1" from="Start_EN" to="U_Turn_EN" priority="-1">
        <lane id="InB_EN_1_0" index="0" speed="13.89" length="100.00" shape="7500.00,-4.80 7400.00,-4.80"/>
        <lane id="InB_EN_1_1" index="1" speed="13.89" length="100.00" shape="7500.00,-1.60 7400.00,-1.60"/>
    </edge>
    <edge id="InB_EN_2" from="U_Turn_EN" to="TFL_2" priority="-1" length="2400.00">
        <lane id="InB_EN_2_0" index="0" speed="13.89" length="2400.00" shape="7400.00,-4.80 5010.40,-4.80"/>
        <lane id="InB_EN_2_1" index="1" speed="13.89" length="2400.00" shape="7400.00,-1.60 5010.40,-1.60"/>
    </edge>
    <edge id="InB_ES_1" from="Start_ES" to="U_Turn_ES" priority="-1">
        <lane id="InB_ES_1_0" index="0" speed="13.89" length="100.00" shape="7500.00,-5004.80 7400.00,-5004.80"/>
        <lane id="InB_ES_1_1" index="1" speed="13.89" length="100.00" shape="7500.00,-5001.60 7400.00,-5001.60"/>
    </edge>
    <edge id="InB_ES_2" from="U_Turn_ES" to="TFL_3" priority="-1" length="2400.00">
        <lane id="InB_ES_2_0" index="0" speed="13.89" length="2400.00" shape="7400.00,-5004.80 5010.40,-5004.80"/>
        <lane id="InB_ES_2_1" index="1" speed="13.89" length="2400.00" shape="7400.00,-5001.60 5010.40,-5001.60"/>
    </edge>
    <edge id="InB_NE_1" from="Start_NE" to="U_Turn_NE" priority="-1">
        <lane id="InB_NE_1_0" index="0" speed="13.89" length="100.00" shape="5004.80,2500.00 5004.80,2400.00"/>
        <lane id="InB_NE_1_1" index="1" speed="13.89" length="100.00" shape="5001.60,2500.00 5001.60,2400.00"/>
    </edge>
    <edge id="InB_NE_2" from="U_Turn_NE" to="TFL_2" priority="-1" length="2400.00">
        <lane id="InB_NE_2_0" index="0" speed="13.89" length="2400.00" shape="5004.80,2400.00 5004.80,10.40"/>
        <lane id="InB_NE_2_1" index="1" speed="13.89" length="2400.00" shape="5001.60,2400.00 5001.60,10.40"/>
    </edge>
    <edge id="InB_NW_1" from="Start_NW" to="U_Turn_NW" priority="-1">
        <lane id="InB_NW_1_0" index="0" speed="13.89" length="100.00" shape="4.80,2500.00 4.80,2400.00"/>
        <lane id="InB_NW_1_1" index="1" speed="13.89" length="100.00" shape="1.60,2500.00 1.60,2400.00"/>
    </edge>
    <edge id="InB_NW_2" from="U_Turn_NW" to="TFL_1" priority="-1" length="2400.00">
        <lane id="InB_NW_2_0" index="0" speed="13.89" length="2400.00" shape="4.80,2400.00 4.80,10.40"/>
        <lane id="InB_NW_2_1" index="1" speed="13.89" length="2400.00" shape="1.60,2400.00 1.60,10.40"/>
    </edge>
    <edge id="InB_SE_1" from="Start_SE" to="U_Turn_SE" priority="-1">
        <lane id="InB_SE_1_0" index="0" speed="13.89" length="100.00" shape="4995.20,-7500.00 4995.20,-7400.00"/>
        <lane id="InB_SE_1_1" index="1" speed="13.89" length="100.00" shape="4998.40,-7500.00 4998.40,-7400.00"/>
    </edge>
    <edge id="InB_SE_2" from="U_Turn_SE" to="TFL_3" priority="-1" length="2400.00">
        <lane id="InB_SE_2_0" index="0" speed="13.89" length="2400.00" shape="4995.20,-7400.00 4995.20,-5010.40"/>
        <lane id="InB_SE_2_1" index="1" speed="13.89" length="2400.00" shape="4998.40,-7400.00 4998.40,-5010.40"/>
    </edge>
    <edge id="InB_SW_1" from="Start_SW" to="U_Turn_SW" priority="-1">
        <lane id="InB_SW_1_0" index="0" speed="13.89" length="100.00" shape="-4.80,-7500.00 -4.80,-7400.00"/>
        <lane id="InB_SW_1_1" index="1" speed="13.89" length="100.00" shape="-1.60,-7500.00 -1.60,-7400.00"/>
    </edge>
    <edge id="InB_SW_2" from="U_Turn_SW" to="TFL_4" priority="-1" length="2400.00">
        <lane id="InB_SW_2_0" index="0" speed="13.89" length="2400.00" shape="-4.80,-7400.00 -4.80,-5010.40"/>