<?xml version="1.0" encoding="UTF-8"?>

<!-- generated on 03/19/21 10:24:00 by Eclipse SUMO netedit Version 1.6.0
<configuration xmlns:xsi="http://www.w3.org/2001/XMLSchema-instance" xsi:noNamespaceSchemaLocation="http://sumo.dlr.de/xsd/netconvertConfiguration.xsd">

    <input>
        <sumo-net-file value="D:\me\4D-2\project-2\code\Semester_2\map\16-way\16-way.net.xml"/>
    </input>

    <output>
        <output-file value="D:\me\4D-2\project-2\code\Semester_2\map\16-way\16-way.net.xml"/>
    </output>

    <processing>
        <geometry.min-radius.fix.railways value="false"/>
        <geometry.max-grade.fix value="false"/>
        <offset.disable-normalization value="true"/>
        <lefthand value="true"/>
    </processing>

    <junctions>
        <no-turnarounds value="true"/>
        <junctions.corner-detail value="5"/>
        <junctions.limit-turn-speed value="5.5"/>
        <rectangular-lane-cut value="false"/>
    </junctions>

    <pedestrian>
        <walkingareas value="false"/>
    </pedestrian>

    <netedit>
        <additional-files value="D:\me\4D-2\project-2\code\Semester_2\map\16-way\16-way.add.xml"/>
    </netedit>

    <report>
        <aggregate-warnings value="5"/>
    </report>

</configuration>
-->

<additional xmlns:xsi="http://www.w3.org/2001/XMLSchema-instance" xsi:noNamespaceSchemaLocation="http://sumo.dlr.de/xsd/additional_file.xsd">
    <e1Detector id="a1_TFL_1_5" lane="Mid_N_2_0" pos="0.00" freq="900.00" file="e1.xml"/>
    <e1Detector id="a1_TFL_1_0" lane="InB_WN_2_1" pos="0.00" freq="900.00" file="e1.xml"/>
    <e1Detector id="a1_TFL_1_1" lane="InB_WN_2_0" pos="0.00" freq="900.00" file="e1.xml"/>
    <e1Detector id="a1_TFL_1_2" lane="InB_NW_1_1" pos="96.88" freq="900.00" file="e1.xml"/>
    <e1Detector id="a1_TFL_1_3" lane="InB_NW_1_0" pos="97.02" freq="900.00" file="e1.xml"/>
    <e1Detector id="a1_TFL_1_4" lane="Mid_N_2_1" pos="0.00" freq="900.00" file="e1.xml"/>
    <e1Detector id="a1_TFL_1_6" lane="Mid_W_1_1" pos="0.00" freq="900.00" file="e1.xml"/>
    <e1Detector id="a1_TFL_1_7" lane="Mid_W_1_0" pos="0.00" freq="900.00" file="e1.xml"/>
    <e1Detector id="a1_TFL_2_0" lane="Mid_N_1_1" pos="0.00" freq="900.00" file="e1.xml"/>
    <e1Detector id="a1_TFL_2_1" lane="Mid_N_1_0" pos="0.00" freq="900.00" file="e1.xml"/>
    <e1Detector id="a1_TFL_2_2" lane="InB_NE_2_1" pos="0.00" freq="900.00" file="e1.xml"/>
    <e1Detector id="a1_TFL_2_3" lane="InB_NE_2_0" pos="0.00" freq="900.00" file="e1.xml"/>
    <e1Detector id="a1_TFL_2_4" lane="InB_EN_2_1" pos="0.00" freq="900.00" file="e1.xml"/>
    <e1Detector id="a1_TFL_2_5" lane="InB_EN_2_0" pos="0.00" freq="900.00" file="e1.xml"/>
    <e1Detector id="a1_TFL_2_6" lane="Mid_E_1_1" pos="0.00" freq="900.00" file="e1.xml"/>
    <e1Detector id="a1_TFL_2_7" lane="Mid_E_1_0" pos="0.00" freq="900.00" file="e1.xml"/>
    <e1Detector id="a1_TFL_3_0" lane="Mid_S_1_1" pos="0.00" freq="900.00" file="e1.xml"/>
    <e1Detector id="a1_TFL_3_1" lane="Mid_S_1_0" pos="0.00" freq="900.00" file="e1.xml"/>
    <e1Detector id="a1_TFL_3_2" lane="Mid_E_2_1" pos="0.00" freq="900.00" file="e1.xml"/>
    <e1Detector id="a1_TFL_3_3" lane="Mid_E_2_0" pos="0.00" freq="900.00" file="e1.xml"/>
    <e1Detector id="a1_TFL_3_4" lane="InB_ES_2_1" pos="0.00" freq="900.00" file="e1.xml"/>
    <e1Detector id="a1_TFL_3_5" lane="InB_ES_2_0" pos="0.00" freq="900.00" file="e1.xml"/>
    <e1Detector id="a1_TFL_3_6" lane="InB_SE_2_1" pos="0.00" freq="900.00" file="e1.xml"/>
    <e1Detector id="a1_TFL_3_7" lane="InB_SE_2_0" pos="0.00" freq="900.00" file="e1.xml"/>
    <e1Detector id="a1_TFL_4_0" lane="InB_WS_2_1" pos="0.00" freq="900.00" file="e1.xml"/>
    <e1Detector id="a1_TFL_4_1" lane="InB_WS_2_0" pos="0.00" freq="900.00" file="e1.xml"/>
    <e1Detector id="a1_TFL_4_2" lane="Mid_W_2_1" pos="0.00" freq="900.00" file="e1.xml"/>
    <e1Detector id="a1_TFL_4_3" lane="Mid_W_2_0" pos="0.00" freq="900.00" file="e1.xml"/>
    <e1Detector id="a1_TFL_4_4" lane="Mid_S_2_1" pos="0.00" freq="900.00" file="e1.xml"/>
    <e1Detector id="a1_TFL_4_5" lane="Mid_S_2_0" pos="0.00" freq="900.00" file="e1.xml"/>
    <e1Detector id="a1_TFL_4_6" lane="InB_SW_2_1" pos="0.00" freq="900.00" file="e1.xml"/>
    <e1Detector id="a1_TFL_4_7" lane="InB_SW_2_0" pos="0.00" freq="900.00" file="e1.xml"/>
    <e1Detector id="e1_TFL_1_0" lane="InB_WN_2_1" pos="-1.00" freq="900.00" file="e1.xml"/>
    <e1Detector id="e1_TFL_1_1" lane="InB_WN_2_0" pos="-1.00" freq="900.00" file="e1.xml"/>
    <e1Detector id="e1_TFL_1_2" lane="InB_NW_2_1" pos="-1.00" freq="900.00" file="e1.xml"/>
    <e1Detector id="e1_TFL_1_3" lane="InB_NW_2_0" pos="-1.00" freq="900.00" file="e1.xml"/>
    <e1Detector id="e1_TFL_1_4" lane="Mid_N_2_1" pos="-1.00" freq="900.00" file="e1.xml"/>
    <e1Detector id="e1_TFL_1_5" lane="Mid_N_2_0" pos="-1.00" freq="900.00" file="e1.xml"/>
    <e1Detector id="e1_TFL_1_6" lane="Mid_W_1_1" pos="-1.00" freq="900.00" file="e1.xml"/>
    <e1Detector id="e1_TFL_1_7" lane="Mid_W_1_0" pos="-1.00" freq="900.00" file="e1.xml"/>
    <e1Detector id="e1_TFL_2_0" lane="Mid_N_1_1" pos="-1.00" freq="900.00" file="e1.xml"/>
    <e1Detector id="e1_TFL_2_1" lane="Mid_N_1_0" pos="-1.00" freq="900.00" file="e1.xml"/>
    <e1Detector id="e1_TFL_2_2" lane="InB_NE_2_1" pos="-1.00" freq="900.00" file="e1.xml"/>
    <e1Detector id="e1_TFL_2_3" lane="InB_NE_2_0" pos="-1.00" freq="900.00" file="e1.xml"/>
    <e1Detector id="e1_TFL_2_4" lane="InB_EN_2_1" pos="-1.00" freq="900.00" file="e1.xml"/>
    <e1Detector id="e1_TFL_2_5" lane="InB_EN_2_0" pos="-1.00" freq="900.00" file="e1.xml"/>
    <e1Detector id="e1_TFL_2_6" lane="Mid_E_1_1" pos="-1.00" freq="900.00" file="e1.xml"/>
    <e1Detector id="e1_TFL_2_7" lane="Mid_E_1_0" pos="-1.00" freq="900.00" file="e1.xml"/>
    <e1Detector id="e1_TFL_3_0" lane="Mid_S_1_1" pos="-1.00" freq="900.00" file="e1.xml"/>
    <e1Detector id="e1_TFL_3_1" lane="Mid_S_1_0" pos="-1.00" freq="900.00" file="e1.xml"/>
    <e1Detector id="e1_TFL_3_2" lane="Mid_E_2_1" pos="-1.00" freq="900.00" file="e1.xml"/>
    <e1Detector id="e1_TFL_3_3" lane="Mid_E_2_0" pos="-1.00" freq="900.00" file="e1.xml"/>
    <e1Detector id="e1_TFL_3_4" lane="InB_ES_2_1" pos="-1.00" freq="900.00" file="e1.xml"/>
    <e1Detector id="e1_TFL_3_5" lane="InB_ES_2_0" pos="-1.00" freq="900.00" file="e1.xml"/>
    <e1Detector id="e1_TFL_3_6" lane="InB_SE_2_1" pos="-1.00" freq="900.00" file="e1.xml"/>
    <e1Detector id="e1_TFL_3_7" lane="InB_SE_2_0" pos="-1.00" freq="900.00" file="e1.xml"/>
    <e1Detector id="e1_TFL_4_0" lane="InB_WS_2_1" pos="-1.00" freq="900.00" file="e1.xml"/>
    <e1Detector id="e1_TFL_4_1" lane="InB_WS_2_0" pos="-1.00" freq="900.00" file="e1.xml"/>
    <e1Detector id="e1_TFL_4_2" lane="Mid_W_2_1" pos="-1.00" freq="900.00" file="e1.xml"/>
    <e1Detector id="e1_TFL_4_3" lane="Mid_W_2_0" pos="-1.00" freq="900.00" file="e1.xml"/>
    <e1Detector id="e1_TFL_4_4" lane="Mid_S_2_1" pos="-1.00" freq="900.00" file="e1.xml"/>
    <e1Detector id="e1_TFL_4_5" lane="Mid_S_2_0" pos="-1.00" freq="900.00" file="e1.xml"/>
    <e1Detector id="e1_TFL_4_6" lane="InB_SW_2_1" pos="-1.00" freq="900.00" file="e1.xml"/>
    <e1Detector id="e1_TFL_4_7" lane="InB_SW_2_0" pos="-1.00" freq="900.00" file="e1.xml"/>
</additional>
